version 2
run SingleCell-UL-0-20151112-11:57:29-3975
attr configname SingleCell-UL
attr datetime 20151112-11:57:29
attr experiment SingleCell-UL
attr inifile omnetpp.ini
attr iterationvars $numUEs=30
attr iterationvars2 "$numUEs=30, $repetition=0"
attr measurement $numUEs=30
attr network lte.simulations.networks.Tests
attr numUEs 30
attr processid 3975
attr repetition 0
attr replication #0
attr resultdir results
attr runnumber 0
attr seedset 0

scalar . 	numUEs 	30
scalar Tests 	hackForCreateResultsFolder 	0
scalar Tests.server.networkLayer.arp 	failedARPResolution:count 	0
attr title  "ARP failed resolutions, count"
scalar Tests.server.networkLayer.arp 	completedARPResolution:count 	0
attr title  "ARP completed resolutions, count"
scalar Tests.server.networkLayer.arp 	initiatedARPResolution:count 	0
attr title  "ARP initiated resolutions, count"
scalar Tests.server.networkLayer.arp 	sentReply:count 	0
attr title  "ARP replies sent, count"
scalar Tests.server.networkLayer.arp 	sentReq:count 	0
attr title  "ARP request sent, count"
scalar Tests.server.lo0.lo 	droppedPkBitError:count 	0
attr interpolationmode  none
attr source  dropPkBitError
attr title  "packets dropped/bit error, count"
scalar Tests.server.lo0.lo 	droppedPkBitError:sum(packetBytes) 	0
attr interpolationmode  none
attr source  dropPkBitError
attr title  "packets dropped/bit error, sum(packetBytes)"
scalar Tests.server.lo0.lo 	rcvdPkFromHL:count 	0
attr interpolationmode  none
attr source  packetReceivedFromUpper
attr title  "packets received from higher layer, count"
scalar Tests.server.lo0.lo 	rcvdPkFromHL:sum(packetBytes) 	0
attr interpolationmode  none
attr source  packetReceivedFromUpper
attr title  "packets received from higher layer, sum(packetBytes)"
scalar Tests.server.lo0.lo 	passedUpPk:count 	0
attr interpolationmode  none
attr source  packetSentToUpper
attr title  "packets passed to higher layer, count"
scalar Tests.server.lo0.lo 	passedUpPk:sum(packetBytes) 	0
attr interpolationmode  none
attr source  packetSentToUpper
attr title  "packets passed to higher layer, sum(packetBytes)"
scalar Tests.server.ppp[0].queue 	queueLength:max 	-nan
attr interpolationmode  sample-hold
attr title  "queue length, max"
scalar Tests.server.ppp[0].queue 	queueLength:timeavg 	-nan
attr interpolationmode  sample-hold
attr title  "queue length, timeavg"
statistic Tests.server.ppp[0].queue 	queueingTime:histogram
field count 478
field mean 0
field stddev 0
field sum 0
field sqrsum 0
field min 0
field max 0
attr interpolationmode  none
attr title  "queueing time, histogram"
bin	-INF	0
bin	-0.5	0
bin	-0.46666666666667	0
bin	-0.43333333333333	0
bin	-0.4	0
bin	-0.36666666666667	0
bin	-0.33333333333333	0
bin	-0.3	0
bin	-0.26666666666667	0
bin	-0.23333333333333	0
bin	-0.2	0
bin	-0.16666666666667	0
bin	-0.13333333333333	0
bin	-0.1	0
bin	-0.066666666666667	0
bin	-0.033333333333333	0
bin	-6.9388939039072e-18	478
bin	0.033333333333333	0
bin	0.066666666666667	0
bin	0.1	0
bin	0.13333333333333	0
bin	0.16666666666667	0
bin	0.2	0
bin	0.23333333333333	0
bin	0.26666666666667	0
bin	0.3	0
bin	0.33333333333333	0
bin	0.36666666666667	0
bin	0.4	0
bin	0.43333333333333	0
bin	0.46666666666667	0
bin	0.5	0
scalar Tests.server.ppp[0].queue 	dropPk:count 	0
attr interpolationmode  none
attr source  dropPkByQueue
attr title  "dropped packets, count"
scalar Tests.server.ppp[0].queue 	dropPk:sum(packetBytes) 	0
attr interpolationmode  none
attr source  dropPkByQueue
attr title  "dropped packets, sum(packetBytes)"
scalar Tests.server.ppp[0].queue 	rcvdPk:count 	478
attr interpolationmode  none
attr title  "received packets, count"
scalar Tests.server.ppp[0].queue 	rcvdPk:sum(packetBytes) 	26768
attr interpolationmode  none
attr title  "received packets, sum(packetBytes)"
scalar Tests.server.ppp[0].ppp 	txState:timeavg 	1.3386975046961e-06
attr interpolationmode  sample-hold
attr title  "tx state, timeavg"
scalar Tests.server.ppp[0].ppp 	droppedPkIfaceDown:count 	0
attr interpolationmode  none
attr source  dropPkIfaceDown
attr title  "packets dropped/interface down, count"
scalar Tests.server.ppp[0].ppp 	droppedPkIfaceDown:sum(packetBytes) 	0
attr interpolationmode  none
attr source  dropPkIfaceDown
attr title  "packets dropped/interface down, sum(packetBytes)"
scalar Tests.server.ppp[0].ppp 	droppedPkBitError:count 	0
attr interpolationmode  none
attr source  dropPkBitError
attr title  "packets dropped/bit error, count"
scalar Tests.server.ppp[0].ppp 	droppedPkBitError:sum(packetBytes) 	0
attr interpolationmode  none
attr source  dropPkBitError
attr title  "packets dropped/bit error, sum(packetBytes)"
scalar Tests.server.ppp[0].ppp 	rxPkOk:count 	478
attr interpolationmode  none
attr source  rxPkOk
attr title  "packets received OK, count"
scalar Tests.server.ppp[0].ppp 	rxPkOk:sum(packetBytes) 	35850
attr interpolationmode  none
attr source  rxPkOk
attr title  "packets received OK, sum(packetBytes)"
scalar Tests.server.ppp[0].ppp 	rcvdPkFromHL:count 	478
attr interpolationmode  none
attr source  packetReceivedFromUpper
attr title  "packets received from higher layer, count"
scalar Tests.server.ppp[0].ppp 	rcvdPkFromHL:sum(packetBytes) 	26768
attr interpolationmode  none
attr source  packetReceivedFromUpper
attr title  "packets received from higher layer, sum(packetBytes)"
scalar Tests.server.ppp[0].ppp 	passedUpPk:count 	478
attr interpolationmode  none
attr source  packetSentToUpper
attr title  "packets passed to higher layer, count"
scalar Tests.server.ppp[0].ppp 	passedUpPk:sum(packetBytes) 	32504
attr interpolationmode  none
attr source  packetSentToUpper
attr title  "packets passed to higher layer, sum(packetBytes)"
scalar Tests.server.ppp[0].ppp 	txPk:count 	478
attr interpolationmode  none
attr source  packetSentToLower
attr title  "packets transmitted, count"
scalar Tests.server.ppp[0].ppp 	txPk:sum(packetBytes) 	30114
attr interpolationmode  none
attr source  packetSentToLower
attr title  "packets transmitted, sum(packetBytes)"
scalar Tests.router.networkLayer.arp 	failedARPResolution:count 	0
attr title  "ARP failed resolutions, count"
scalar Tests.router.networkLayer.arp 	completedARPResolution:count 	0
attr title  "ARP completed resolutions, count"
scalar Tests.router.networkLayer.arp 	initiatedARPResolution:count 	0
attr title  "ARP initiated resolutions, count"
scalar Tests.router.networkLayer.arp 	sentReply:count 	0
attr title  "ARP replies sent, count"
scalar Tests.router.networkLayer.arp 	sentReq:count 	0
attr title  "ARP request sent, count"
scalar Tests.router.lo0.lo 	droppedPkBitError:count 	0
attr interpolationmode  none
attr source  dropPkBitError
attr title  "packets dropped/bit error, count"
scalar Tests.router.lo0.lo 	droppedPkBitError:sum(packetBytes) 	0
attr interpolationmode  none
attr source  dropPkBitError
attr title  "packets dropped/bit error, sum(packetBytes)"
scalar Tests.router.lo0.lo 	rcvdPkFromHL:count 	0
attr interpolationmode  none
attr source  packetReceivedFromUpper
attr title  "packets received from higher layer, count"
scalar Tests.router.lo0.lo 	rcvdPkFromHL:sum(packetBytes) 	0
attr interpolationmode  none
attr source  packetReceivedFromUpper
attr title  "packets received from higher layer, sum(packetBytes)"
scalar Tests.router.lo0.lo 	passedUpPk:count 	0
attr interpolationmode  none
attr source  packetSentToUpper
attr title  "packets passed to higher layer, count"
scalar Tests.router.lo0.lo 	passedUpPk:sum(packetBytes) 	0
attr interpolationmode  none
attr source  packetSentToUpper
attr title  "packets passed to higher layer, sum(packetBytes)"
scalar Tests.router.ppp[0].queue 	queueLength:max 	-nan
attr interpolationmode  sample-hold
attr title  "queue length, max"
scalar Tests.router.ppp[0].queue 	queueLength:timeavg 	-nan
attr interpolationmode  sample-hold
attr title  "queue length, timeavg"
statistic Tests.router.ppp[0].queue 	queueingTime:histogram
field count 478
field mean 0
field stddev 0
field sum 0
field sqrsum 0
field min 0
field max 0
attr interpolationmode  none
attr title  "queueing time, histogram"
bin	-INF	0
bin	-0.5	0
bin	-0.46666666666667	0
bin	-0.43333333333333	0
bin	-0.4	0
bin	-0.36666666666667	0
bin	-0.33333333333333	0
bin	-0.3	0
bin	-0.26666666666667	0
bin	-0.23333333333333	0
bin	-0.2	0
bin	-0.16666666666667	0
bin	-0.13333333333333	0
bin	-0.1	0
bin	-0.066666666666667	0
bin	-0.033333333333333	0
bin	-6.9388939039072e-18	478
bin	0.033333333333333	0
bin	0.066666666666667	0
bin	0.1	0
bin	0.13333333333333	0
bin	0.16666666666667	0
bin	0.2	0
bin	0.23333333333333	0
bin	0.26666666666667	0
bin	0.3	0
bin	0.33333333333333	0
bin	0.36666666666667	0
bin	0.4	0
bin	0.43333333333333	0
bin	0.46666666666667	0
bin	0.5	0
scalar Tests.router.ppp[0].queue 	dropPk:count 	0
attr interpolationmode  none
attr source  dropPkByQueue
attr title  "dropped packets, count"
scalar Tests.router.ppp[0].queue 	dropPk:sum(packetBytes) 	0
attr interpolationmode  none
attr source  dropPkByQueue
attr title  "dropped packets, sum(packetBytes)"
scalar Tests.router.ppp[0].queue 	rcvdPk:count 	478
attr interpolationmode  none
attr title  "received packets, count"
scalar Tests.router.ppp[0].queue 	rcvdPk:sum(packetBytes) 	32504
attr interpolationmode  none
attr title  "received packets, sum(packetBytes)"
scalar Tests.router.ppp[0].ppp 	txState:timeavg 	1.593660934391e-06
attr interpolationmode  sample-hold
attr title  "tx state, timeavg"
scalar Tests.router.ppp[0].ppp 	droppedPkIfaceDown:count 	0
attr interpolationmode  none
attr source  dropPkIfaceDown
attr title  "packets dropped/interface down, count"
scalar Tests.router.ppp[0].ppp 	droppedPkIfaceDown:sum(packetBytes) 	0
attr interpolationmode  none
attr source  dropPkIfaceDown
attr title  "packets dropped/interface down, sum(packetBytes)"
scalar Tests.router.ppp[0].ppp 	droppedPkBitError:count 	0
attr interpolationmode  none
attr source  dropPkBitError
attr title  "packets dropped/bit error, count"
scalar Tests.router.ppp[0].ppp 	droppedPkBitError:sum(packetBytes) 	0
attr interpolationmode  none
attr source  dropPkBitError
attr title  "packets dropped/bit error, sum(packetBytes)"
scalar Tests.router.ppp[0].ppp 	rxPkOk:count 	478
attr interpolationmode  none
attr source  rxPkOk
attr title  "packets received OK, count"
scalar Tests.router.ppp[0].ppp 	rxPkOk:sum(packetBytes) 	30114
attr interpolationmode  none
attr source  rxPkOk
attr title  "packets received OK, sum(packetBytes)"
scalar Tests.router.ppp[0].ppp 	rcvdPkFromHL:count 	478
attr interpolationmode  none
attr source  packetReceivedFromUpper
attr title  "packets received from higher layer, count"
scalar Tests.router.ppp[0].ppp 	rcvdPkFromHL:sum(packetBytes) 	32504
attr interpolationmode  none
attr source  packetReceivedFromUpper
attr title  "packets received from higher layer, sum(packetBytes)"
scalar Tests.router.ppp[0].ppp 	passedUpPk:count 	478
attr interpolationmode  none
attr source  packetSentToUpper
attr title  "packets passed to higher layer, count"
scalar Tests.router.ppp[0].ppp 	passedUpPk:sum(packetBytes) 	26768
attr interpolationmode  none
attr source  packetSentToUpper
attr title  "packets passed to higher layer, sum(packetBytes)"
scalar Tests.router.ppp[0].ppp 	txPk:count 	478
attr interpolationmode  none
attr source  packetSentToLower
attr title  "packets transmitted, count"
scalar Tests.router.ppp[0].ppp 	txPk:sum(packetBytes) 	35850
attr interpolationmode  none
attr source  packetSentToLower
attr title  "packets transmitted, sum(packetBytes)"
scalar Tests.router.ppp[1].queue 	queueLength:max 	-nan
attr interpolationmode  sample-hold
attr title  "queue length, max"
scalar Tests.router.ppp[1].queue 	queueLength:timeavg 	-nan
attr interpolationmode  sample-hold
attr title  "queue length, timeavg"
statistic Tests.router.ppp[1].queue 	queueingTime:histogram
field count 478
field mean 0
field stddev 0
field sum 0
field sqrsum 0
field min 0
field max 0
attr interpolationmode  none
attr title  "queueing time, histogram"
bin	-INF	0
bin	-0.5	0
bin	-0.46666666666667	0
bin	-0.43333333333333	0
bin	-0.4	0
bin	-0.36666666666667	0
bin	-0.33333333333333	0
bin	-0.3	0
bin	-0.26666666666667	0
bin	-0.23333333333333	0
bin	-0.2	0
bin	-0.16666666666667	0
bin	-0.13333333333333	0
bin	-0.1	0
bin	-0.066666666666667	0
bin	-0.033333333333333	0
bin	-6.9388939039072e-18	478
bin	0.033333333333333	0
bin	0.066666666666667	0
bin	0.1	0
bin	0.13333333333333	0
bin	0.16666666666667	0
bin	0.2	0
bin	0.23333333333333	0
bin	0.26666666666667	0
bin	0.3	0
bin	0.33333333333333	0
bin	0.36666666666667	0
bin	0.4	0
bin	0.43333333333333	0
bin	0.46666666666667	0
bin	0.5	0
scalar Tests.router.ppp[1].queue 	dropPk:count 	0
attr interpolationmode  none
attr source  dropPkByQueue
attr title  "dropped packets, count"
scalar Tests.router.ppp[1].queue 	dropPk:sum(packetBytes) 	0
attr interpolationmode  none
attr source  dropPkByQueue
attr title  "dropped packets, sum(packetBytes)"
scalar Tests.router.ppp[1].queue 	rcvdPk:count 	478
attr interpolationmode  none
attr title  "received packets, count"
scalar Tests.router.ppp[1].queue 	rcvdPk:sum(packetBytes) 	26768
attr interpolationmode  none
attr title  "received packets, sum(packetBytes)"
scalar Tests.router.ppp[1].ppp 	txState:timeavg 	1.3386975121647e-06
attr interpolationmode  sample-hold
attr title  "tx state, timeavg"
scalar Tests.router.ppp[1].ppp 	droppedPkIfaceDown:count 	0
attr interpolationmode  none
attr source  dropPkIfaceDown
attr title  "packets dropped/interface down, count"
scalar Tests.router.ppp[1].ppp 	droppedPkIfaceDown:sum(packetBytes) 	0
attr interpolationmode  none
attr source  dropPkIfaceDown
attr title  "packets dropped/interface down, sum(packetBytes)"
scalar Tests.router.ppp[1].ppp 	droppedPkBitError:count 	0
attr interpolationmode  none
attr source  dropPkBitError
attr title  "packets dropped/bit error, count"
scalar Tests.router.ppp[1].ppp 	droppedPkBitError:sum(packetBytes) 	0
attr interpolationmode  none
attr source  dropPkBitError
attr title  "packets dropped/bit error, sum(packetBytes)"
scalar Tests.router.ppp[1].ppp 	rxPkOk:count 	478
attr interpolationmode  none
attr source  rxPkOk
attr title  "packets received OK, count"
scalar Tests.router.ppp[1].ppp 	rxPkOk:sum(packetBytes) 	35850
attr interpolationmode  none
attr source  rxPkOk
attr title  "packets received OK, sum(packetBytes)"
scalar Tests.router.ppp[1].ppp 	rcvdPkFromHL:count 	478
attr interpolationmode  none
attr source  packetReceivedFromUpper
attr title  "packets received from higher layer, count"
scalar Tests.router.ppp[1].ppp 	rcvdPkFromHL:sum(packetBytes) 	26768
attr interpolationmode  none
attr source  packetReceivedFromUpper
attr title  "packets received from higher layer, sum(packetBytes)"
scalar Tests.router.ppp[1].ppp 	passedUpPk:count 	478
attr interpolationmode  none
attr source  packetSentToUpper
attr title  "packets passed to higher layer, count"
scalar Tests.router.ppp[1].ppp 	passedUpPk:sum(packetBytes) 	32504
attr interpolationmode  none
attr source  packetSentToUpper
attr title  "packets passed to higher layer, sum(packetBytes)"
scalar Tests.router.ppp[1].ppp 	txPk:count 	478
attr interpolationmode  none
attr source  packetSentToLower
attr title  "packets transmitted, count"
scalar Tests.router.ppp[1].ppp 	txPk:sum(packetBytes) 	30114
attr interpolationmode  none
attr source  packetSentToLower
attr title  "packets transmitted, sum(packetBytes)"
scalar Tests.eNodeB.nic.pdcpRrc 	sentPacketToLowerLayer:count 	478
attr interpolationmode  none
attr source  sentPacketToLowerLayer
scalar Tests.eNodeB.nic.pdcpRrc 	sentPacketToLowerLayer:sum(packetBytes) 	27246
attr interpolationmode  none
attr source  sentPacketToLowerLayer
scalar Tests.eNodeB.nic.pdcpRrc 	sentPacketToUpperLayer:count 	478
attr interpolationmode  none
attr source  sentPacketToUpperLayer
scalar Tests.eNodeB.nic.pdcpRrc 	sentPacketToUpperLayer:sum(packetBytes) 	32504
attr interpolationmode  none
attr source  sentPacketToUpperLayer
scalar Tests.eNodeB.nic.pdcpRrc 	receivedPacketFromLowerLayer:count 	478
attr interpolationmode  none
attr source  receivedPacketFromLowerLayer
scalar Tests.eNodeB.nic.pdcpRrc 	receivedPacketFromLowerLayer:sum(packetBytes) 	32982
attr interpolationmode  none
attr source  receivedPacketFromLowerLayer
scalar Tests.eNodeB.nic.pdcpRrc 	receivedPacketFromUpperLayer:count 	478
attr interpolationmode  none
attr source  receivedPacketFromUpperLayer
scalar Tests.eNodeB.nic.pdcpRrc 	receivedPacketFromUpperLayer:sum(packetBytes) 	26768
attr interpolationmode  none
attr source  receivedPacketFromUpperLayer
scalar Tests.eNodeB.nic.rlc.um 	rlcCellPacketLossUl:lteAvg 	0.022494887525562
attr source  rlcCellPacketLossUl
attr title  "rlc Cell Packet Loss, lteAvg"
attr unit  ""
scalar Tests.eNodeB.nic.rlc.um 	rlcCellPacketLossDl:lteAvg 	0
attr source  rlcCellPacketLossDl
attr title  "rlc Cell Packet Loss, lteAvg"
attr unit  ""
scalar Tests.eNodeB.nic.rlc.um 	rlcCellThroughputDl:lteRate 	1567.5615585571
attr source  rlcCellThroughputDl
attr title  "Cell Throughput at the rlc layer DL, lteRate"
attr unit  Bps
scalar Tests.eNodeB.nic.rlc.um 	rlcCellThroughputUl:lteRate 	1885.8635252278
attr source  rlcCellThroughputUl
attr title  "Cell Throughput at the rlc layer UL, lteRate"
attr unit  Bps
scalar Tests.eNodeB.nic.mac 	cqiDlMuMimo4:lteAvg 	14.989666666667
attr source  cqiDlMuMimo4
attr title  "Average cqi MuMimo band 4, lteAvg"
attr unit  cqi
scalar Tests.eNodeB.nic.mac 	cqiDlMuMimo4:lteAvg 	9.078
attr source  cqiDlMuMimo4
attr title  "Average cqi MuMimo band 4, lteAvg"
attr unit  cqi
scalar Tests.eNodeB.nic.mac 	cqiDlMuMimo4:lteAvg 	14.993
attr source  cqiDlMuMimo4
attr title  "Average cqi MuMimo band 4, lteAvg"
attr unit  cqi
scalar Tests.eNodeB.nic.mac 	cqiDlMuMimo4:lteAvg 	12.334
attr source  cqiDlMuMimo4
attr title  "Average cqi MuMimo band 4, lteAvg"
attr unit  cqi
scalar Tests.eNodeB.nic.mac 	cqiDlMuMimo4:lteAvg 	14.989
attr source  cqiDlMuMimo4
attr title  "Average cqi MuMimo band 4, lteAvg"
attr unit  cqi
scalar Tests.eNodeB.nic.mac 	cqiDlMuMimo4:lteAvg 	9.9103333333333
attr source  cqiDlMuMimo4
attr title  "Average cqi MuMimo band 4, lteAvg"
attr unit  cqi
scalar Tests.eNodeB.nic.mac 	cqiDlMuMimo4:lteAvg 	12.155666666667
attr source  cqiDlMuMimo4
attr title  "Average cqi MuMimo band 4, lteAvg"
attr unit  cqi
scalar Tests.eNodeB.nic.mac 	cqiDlMuMimo4:lteAvg 	11.567666666667
attr source  cqiDlMuMimo4
attr title  "Average cqi MuMimo band 4, lteAvg"
attr unit  cqi
scalar Tests.eNodeB.nic.mac 	cqiDlMuMimo4:lteAvg 	13.121666666667
attr source  cqiDlMuMimo4
attr title  "Average cqi MuMimo band 4, lteAvg"
attr unit  cqi
scalar Tests.eNodeB.nic.mac 	cqiDlMuMimo4:lteAvg 	14.995333333333
attr source  cqiDlMuMimo4
attr title  "Average cqi MuMimo band 4, lteAvg"
attr unit  cqi
scalar Tests.eNodeB.nic.mac 	cqiDlMuMimo4:lteAvg 	14.942
attr source  cqiDlMuMimo4
attr title  "Average cqi MuMimo band 4, lteAvg"
attr unit  cqi
scalar Tests.eNodeB.nic.mac 	cqiDlMuMimo4:lteAvg 	14.107333333333
attr source  cqiDlMuMimo4
attr title  "Average cqi MuMimo band 4, lteAvg"
attr unit  cqi
scalar Tests.eNodeB.nic.mac 	cqiDlMuMimo4:lteAvg 	11.342333333333
attr source  cqiDlMuMimo4
attr title  "Average cqi MuMimo band 4, lteAvg"
attr unit  cqi
scalar Tests.eNodeB.nic.mac 	cqiDlMuMimo4:lteAvg 	14.140666666667
attr source  cqiDlMuMimo4
attr title  "Average cqi MuMimo band 4, lteAvg"
attr unit  cqi
scalar Tests.eNodeB.nic.mac 	cqiDlMuMimo4:lteAvg 	14.39
attr source  cqiDlMuMimo4
attr title  "Average cqi MuMimo band 4, lteAvg"
attr unit  cqi
scalar Tests.eNodeB.nic.mac 	cqiDlMuMimo4:lteAvg 	5.8506666666667
attr source  cqiDlMuMimo4
attr title  "Average cqi MuMimo band 4, lteAvg"
attr unit  cqi
scalar Tests.eNodeB.nic.mac 	cqiDlMuMimo4:lteAvg 	10.559666666667
attr source  cqiDlMuMimo4
attr title  "Average cqi MuMimo band 4, lteAvg"
attr unit  cqi
scalar Tests.eNodeB.nic.mac 	cqiDlMuMimo4:lteAvg 	13.906
attr source  cqiDlMuMimo4
attr title  "Average cqi MuMimo band 4, lteAvg"
attr unit  cqi
scalar Tests.eNodeB.nic.mac 	cqiDlMuMimo4:lteAvg 	14.935333333333
attr source  cqiDlMuMimo4
attr title  "Average cqi MuMimo band 4, lteAvg"
attr unit  cqi
scalar Tests.eNodeB.nic.mac 	cqiDlMuMimo4:lteAvg 	9.558
attr source  cqiDlMuMimo4
attr title  "Average cqi MuMimo band 4, lteAvg"
attr unit  cqi
scalar Tests.eNodeB.nic.mac 	cqiDlMuMimo4:lteAvg 	9.6676666666667
attr source  cqiDlMuMimo4
attr title  "Average cqi MuMimo band 4, lteAvg"
attr unit  cqi
scalar Tests.eNodeB.nic.mac 	cqiDlMuMimo4:lteAvg 	12.533333333333
attr source  cqiDlMuMimo4
attr title  "Average cqi MuMimo band 4, lteAvg"
attr unit  cqi
scalar Tests.eNodeB.nic.mac 	cqiDlMuMimo4:lteAvg 	13.747666666667
attr source  cqiDlMuMimo4
attr title  "Average cqi MuMimo band 4, lteAvg"
attr unit  cqi
scalar Tests.eNodeB.nic.mac 	cqiDlMuMimo4:lteAvg 	11.958666666667
attr source  cqiDlMuMimo4
attr title  "Average cqi MuMimo band 4, lteAvg"
attr unit  cqi
scalar Tests.eNodeB.nic.mac 	cqiDlMuMimo4:lteAvg 	12.796666666667
attr source  cqiDlMuMimo4
attr title  "Average cqi MuMimo band 4, lteAvg"
attr unit  cqi
scalar Tests.eNodeB.nic.mac 	cqiDlMuMimo4:lteAvg 	12.831333333333
attr source  cqiDlMuMimo4
attr title  "Average cqi MuMimo band 4, lteAvg"
attr unit  cqi
scalar Tests.eNodeB.nic.mac 	cqiDlMuMimo4:lteAvg 	14.993333333333
attr source  cqiDlMuMimo4
attr title  "Average cqi MuMimo band 4, lteAvg"
attr unit  cqi
scalar Tests.eNodeB.nic.mac 	cqiDlMuMimo4:lteAvg 	11.167333333333
attr source  cqiDlMuMimo4
attr title  "Average cqi MuMimo band 4, lteAvg"
attr unit  cqi
scalar Tests.eNodeB.nic.mac 	cqiDlMuMimo4:lteAvg 	13.890666666667
attr source  cqiDlMuMimo4
attr title  "Average cqi MuMimo band 4, lteAvg"
attr unit  cqi
scalar Tests.eNodeB.nic.mac 	cqiDlMuMimo4:lteAvg 	9.627
attr source  cqiDlMuMimo4
attr title  "Average cqi MuMimo band 4, lteAvg"
attr unit  cqi
scalar Tests.eNodeB.nic.mac 	cqiDlMuMimo3:lteAvg 	9.9183333333333
attr source  cqiDlMuMimo3
attr title  "Average cqi MuMimo band 3, lteAvg"
attr unit  cqi
scalar Tests.eNodeB.nic.mac 	cqiDlMuMimo3:lteAvg 	11.872333333333
attr source  cqiDlMuMimo3
attr title  "Average cqi MuMimo band 3, lteAvg"
attr unit  cqi
scalar Tests.eNodeB.nic.mac 	cqiDlMuMimo3:lteAvg 	13.709666666667
attr source  cqiDlMuMimo3
attr title  "Average cqi MuMimo band 3, lteAvg"
attr unit  cqi
scalar Tests.eNodeB.nic.mac 	cqiDlMuMimo3:lteAvg 	14.184333333333
attr source  cqiDlMuMimo3
attr title  "Average cqi MuMimo band 3, lteAvg"
attr unit  cqi
scalar Tests.eNodeB.nic.mac 	cqiDlMuMimo3:lteAvg 	14.932666666667
attr source  cqiDlMuMimo3
attr title  "Average cqi MuMimo band 3, lteAvg"
attr unit  cqi
scalar Tests.eNodeB.nic.mac 	cqiDlMuMimo3:lteAvg 	12.290333333333
attr source  cqiDlMuMimo3
attr title  "Average cqi MuMimo band 3, lteAvg"
attr unit  cqi
scalar Tests.eNodeB.nic.mac 	cqiDlMuMimo3:lteAvg 	10.416
attr source  cqiDlMuMimo3
attr title  "Average cqi MuMimo band 3, lteAvg"
attr unit  cqi
scalar Tests.eNodeB.nic.mac 	cqiDlMuMimo3:lteAvg 	14.558333333333
attr source  cqiDlMuMimo3
attr title  "Average cqi MuMimo band 3, lteAvg"
attr unit  cqi
scalar Tests.eNodeB.nic.mac 	cqiDlMuMimo3:lteAvg 	10.524
attr source  cqiDlMuMimo3
attr title  "Average cqi MuMimo band 3, lteAvg"
attr unit  cqi
scalar Tests.eNodeB.nic.mac 	cqiDlMuMimo3:lteAvg 	14.997
attr source  cqiDlMuMimo3
attr title  "Average cqi MuMimo band 3, lteAvg"
attr unit  cqi
scalar Tests.eNodeB.nic.mac 	cqiDlMuMimo3:lteAvg 	14.992
attr source  cqiDlMuMimo3
attr title  "Average cqi MuMimo band 3, lteAvg"
attr unit  cqi
scalar Tests.eNodeB.nic.mac 	cqiDlMuMimo3:lteAvg 	10.629333333333
attr source  cqiDlMuMimo3
attr title  "Average cqi MuMimo band 3, lteAvg"
attr unit  cqi
scalar Tests.eNodeB.nic.mac 	cqiDlMuMimo3:lteAvg 	11.34
attr source  cqiDlMuMimo3
attr title  "Average cqi MuMimo band 3, lteAvg"
attr unit  cqi
scalar Tests.eNodeB.nic.mac 	cqiDlMuMimo3:lteAvg 	14.188333333333
attr source  cqiDlMuMimo3
attr title  "Average cqi MuMimo band 3, lteAvg"
attr unit  cqi
scalar Tests.eNodeB.nic.mac 	cqiDlMuMimo3:lteAvg 	5.8516666666667
attr source  cqiDlMuMimo3
attr title  "Average cqi MuMimo band 3, lteAvg"
attr unit  cqi
scalar Tests.eNodeB.nic.mac 	cqiDlMuMimo3:lteAvg 	2.424
attr source  cqiDlMuMimo3
attr title  "Average cqi MuMimo band 3, lteAvg"
attr unit  cqi
scalar Tests.eNodeB.nic.mac 	cqiDlMuMimo3:lteAvg 	11.347333333333
attr source  cqiDlMuMimo3
attr title  "Average cqi MuMimo band 3, lteAvg"
attr unit  cqi
scalar Tests.eNodeB.nic.mac 	cqiDlMuMimo3:lteAvg 	14.704333333333
attr source  cqiDlMuMimo3
attr title  "Average cqi MuMimo band 3, lteAvg"
attr unit  cqi
scalar Tests.eNodeB.nic.mac 	cqiDlMuMimo3:lteAvg 	6.9993333333333
attr source  cqiDlMuMimo3
attr title  "Average cqi MuMimo band 3, lteAvg"
attr unit  cqi
scalar Tests.eNodeB.nic.mac 	cqiDlMuMimo3:lteAvg 	14.074666666667
attr source  cqiDlMuMimo3
attr title  "Average cqi MuMimo band 3, lteAvg"
attr unit  cqi
scalar Tests.eNodeB.nic.mac 	cqiDlMuMimo3:lteAvg 	11.084
attr source  cqiDlMuMimo3
attr title  "Average cqi MuMimo band 3, lteAvg"
attr unit  cqi
scalar Tests.eNodeB.nic.mac 	cqiDlMuMimo3:lteAvg 	12.763666666667
attr source  cqiDlMuMimo3
attr title  "Average cqi MuMimo band 3, lteAvg"
attr unit  cqi
scalar Tests.eNodeB.nic.mac 	cqiDlMuMimo3:lteAvg 	13.986333333333
attr source  cqiDlMuMimo3
attr title  "Average cqi MuMimo band 3, lteAvg"
attr unit  cqi
scalar Tests.eNodeB.nic.mac 	cqiDlMuMimo3:lteAvg 	6.5846666666667
attr source  cqiDlMuMimo3
attr title  "Average cqi MuMimo band 3, lteAvg"
attr unit  cqi
scalar Tests.eNodeB.nic.mac 	cqiDlMuMimo3:lteAvg 	5.2846666666667
attr source  cqiDlMuMimo3
attr title  "Average cqi MuMimo band 3, lteAvg"
attr unit  cqi
scalar Tests.eNodeB.nic.mac 	cqiDlMuMimo3:lteAvg 	12.431333333333
attr source  cqiDlMuMimo3
attr title  "Average cqi MuMimo band 3, lteAvg"
attr unit  cqi
scalar Tests.eNodeB.nic.mac 	cqiDlMuMimo3:lteAvg 	14.999
attr source  cqiDlMuMimo3
attr title  "Average cqi MuMimo band 3, lteAvg"
attr unit  cqi
scalar Tests.eNodeB.nic.mac 	cqiDlMuMimo3:lteAvg 	2.2113333333333
attr source  cqiDlMuMimo3
attr title  "Average cqi MuMimo band 3, lteAvg"
attr unit  cqi
scalar Tests.eNodeB.nic.mac 	cqiDlMuMimo3:lteAvg 	14.186333333333
attr source  cqiDlMuMimo3
attr title  "Average cqi MuMimo band 3, lteAvg"
attr unit  cqi
scalar Tests.eNodeB.nic.mac 	cqiDlMuMimo3:lteAvg 	5.9216666666667
attr source  cqiDlMuMimo3
attr title  "Average cqi MuMimo band 3, lteAvg"
attr unit  cqi
scalar Tests.eNodeB.nic.mac 	cqiDlMuMimo2:lteAvg 	14.354666666667
attr source  cqiDlMuMimo2
attr title  "Average cqi MuMimo band 2, lteAvg"
attr unit  cqi
scalar Tests.eNodeB.nic.mac 	cqiDlMuMimo2:lteAvg 	10.072333333333
attr source  cqiDlMuMimo2
attr title  "Average cqi MuMimo band 2, lteAvg"
attr unit  cqi
scalar Tests.eNodeB.nic.mac 	cqiDlMuMimo2:lteAvg 	14.99
attr source  cqiDlMuMimo2
attr title  "Average cqi MuMimo band 2, lteAvg"
attr unit  cqi
scalar Tests.eNodeB.nic.mac 	cqiDlMuMimo2:lteAvg 	13.401666666667
attr source  cqiDlMuMimo2
attr title  "Average cqi MuMimo band 2, lteAvg"
attr unit  cqi
scalar Tests.eNodeB.nic.mac 	cqiDlMuMimo2:lteAvg 	14.764333333333
attr source  cqiDlMuMimo2
attr title  "Average cqi MuMimo band 2, lteAvg"
attr unit  cqi
scalar Tests.eNodeB.nic.mac 	cqiDlMuMimo2:lteAvg 	2.8563333333333
attr source  cqiDlMuMimo2
attr title  "Average cqi MuMimo band 2, lteAvg"
attr unit  cqi
scalar Tests.eNodeB.nic.mac 	cqiDlMuMimo2:lteAvg 	13.216
attr source  cqiDlMuMimo2
attr title  "Average cqi MuMimo band 2, lteAvg"
attr unit  cqi
scalar Tests.eNodeB.nic.mac 	cqiDlMuMimo2:lteAvg 	14.660333333333
attr source  cqiDlMuMimo2
attr title  "Average cqi MuMimo band 2, lteAvg"
attr unit  cqi
scalar Tests.eNodeB.nic.mac 	cqiDlMuMimo2:lteAvg 	14.4
attr source  cqiDlMuMimo2
attr title  "Average cqi MuMimo band 2, lteAvg"
attr unit  cqi
scalar Tests.eNodeB.nic.mac 	cqiDlMuMimo2:lteAvg 	14.923666666667
attr source  cqiDlMuMimo2
attr title  "Average cqi MuMimo band 2, lteAvg"
attr unit  cqi
scalar Tests.eNodeB.nic.mac 	cqiDlMuMimo2:lteAvg 	14.994
attr source  cqiDlMuMimo2
attr title  "Average cqi MuMimo band 2, lteAvg"
attr unit  cqi
scalar Tests.eNodeB.nic.mac 	cqiDlMuMimo2:lteAvg 	8.6536666666667
attr source  cqiDlMuMimo2
attr title  "Average cqi MuMimo band 2, lteAvg"
attr unit  cqi
scalar Tests.eNodeB.nic.mac 	cqiDlMuMimo2:lteAvg 	11.774
attr source  cqiDlMuMimo2
attr title  "Average cqi MuMimo band 2, lteAvg"
attr unit  cqi
scalar Tests.eNodeB.nic.mac 	cqiDlMuMimo2:lteAvg 	13.357
attr source  cqiDlMuMimo2
attr title  "Average cqi MuMimo band 2, lteAvg"
attr unit  cqi
scalar Tests.eNodeB.nic.mac 	cqiDlMuMimo2:lteAvg 	14.661666666667
attr source  cqiDlMuMimo2
attr title  "Average cqi MuMimo band 2, lteAvg"
attr unit  cqi
scalar Tests.eNodeB.nic.mac 	cqiDlMuMimo2:lteAvg 	4.2096666666667
attr source  cqiDlMuMimo2
attr title  "Average cqi MuMimo band 2, lteAvg"
attr unit  cqi
scalar Tests.eNodeB.nic.mac 	cqiDlMuMimo2:lteAvg 	10.102666666667
attr source  cqiDlMuMimo2
attr title  "Average cqi MuMimo band 2, lteAvg"
attr unit  cqi
scalar Tests.eNodeB.nic.mac 	cqiDlMuMimo2:lteAvg 	13.474333333333
attr source  cqiDlMuMimo2
attr title  "Average cqi MuMimo band 2, lteAvg"
attr unit  cqi
scalar Tests.eNodeB.nic.mac 	cqiDlMuMimo2:lteAvg 	14.955333333333
attr source  cqiDlMuMimo2
attr title  "Average cqi MuMimo band 2, lteAvg"
attr unit  cqi
scalar Tests.eNodeB.nic.mac 	cqiDlMuMimo2:lteAvg 	13.847666666667
attr source  cqiDlMuMimo2
attr title  "Average cqi MuMimo band 2, lteAvg"
attr unit  cqi
scalar Tests.eNodeB.nic.mac 	cqiDlMuMimo2:lteAvg 	7.8616666666667
attr source  cqiDlMuMimo2
attr title  "Average cqi MuMimo band 2, lteAvg"
attr unit  cqi
scalar Tests.eNodeB.nic.mac 	cqiDlMuMimo2:lteAvg 	13.708
attr source  cqiDlMuMimo2
attr title  "Average cqi MuMimo band 2, lteAvg"
attr unit  cqi
scalar Tests.eNodeB.nic.mac 	cqiDlMuMimo2:lteAvg 	14.280333333333
attr source  cqiDlMuMimo2
attr title  "Average cqi MuMimo band 2, lteAvg"
attr unit  cqi
scalar Tests.eNodeB.nic.mac 	cqiDlMuMimo2:lteAvg 	9.207
attr source  cqiDlMuMimo2
attr title  "Average cqi MuMimo band 2, lteAvg"
attr unit  cqi
scalar Tests.eNodeB.nic.mac 	cqiDlMuMimo2:lteAvg 	13.842333333333
attr source  cqiDlMuMimo2
attr title  "Average cqi MuMimo band 2, lteAvg"
attr unit  cqi
scalar Tests.eNodeB.nic.mac 	cqiDlMuMimo2:lteAvg 	11.288666666667
attr source  cqiDlMuMimo2
attr title  "Average cqi MuMimo band 2, lteAvg"
attr unit  cqi
scalar Tests.eNodeB.nic.mac 	cqiDlMuMimo2:lteAvg 	14.998
attr source  cqiDlMuMimo2
attr title  "Average cqi MuMimo band 2, lteAvg"
attr unit  cqi
scalar Tests.eNodeB.nic.mac 	cqiDlMuMimo2:lteAvg 	8.5316666666667
attr source  cqiDlMuMimo2
attr title  "Average cqi MuMimo band 2, lteAvg"
attr unit  cqi
scalar Tests.eNodeB.nic.mac 	cqiDlMuMimo2:lteAvg 	13.982333333333
attr source  cqiDlMuMimo2
attr title  "Average cqi MuMimo band 2, lteAvg"
attr unit  cqi
scalar Tests.eNodeB.nic.mac 	cqiDlMuMimo2:lteAvg 	10.701
attr source  cqiDlMuMimo2
attr title  "Average cqi MuMimo band 2, lteAvg"
attr unit  cqi
scalar Tests.eNodeB.nic.mac 	cqiDlMuMimo1:lteAvg 	14.986666666667
attr source  cqiDlMuMimo1
attr title  "Average cqi MuMimo band 1, lteAvg"
attr unit  cqi
scalar Tests.eNodeB.nic.mac 	cqiDlMuMimo1:lteAvg 	7.856
attr source  cqiDlMuMimo1
attr title  "Average cqi MuMimo band 1, lteAvg"
attr unit  cqi
scalar Tests.eNodeB.nic.mac 	cqiDlMuMimo1:lteAvg 	14.992666666667
attr source  cqiDlMuMimo1
attr title  "Average cqi MuMimo band 1, lteAvg"
attr unit  cqi
scalar Tests.eNodeB.nic.mac 	cqiDlMuMimo1:lteAvg 	13.845333333333
attr source  cqiDlMuMimo1
attr title  "Average cqi MuMimo band 1, lteAvg"
attr unit  cqi
scalar Tests.eNodeB.nic.mac 	cqiDlMuMimo1:lteAvg 	14.792666666667
attr source  cqiDlMuMimo1
attr title  "Average cqi MuMimo band 1, lteAvg"
attr unit  cqi
scalar Tests.eNodeB.nic.mac 	cqiDlMuMimo1:lteAvg 	14.345666666667
attr source  cqiDlMuMimo1
attr title  "Average cqi MuMimo band 1, lteAvg"
attr unit  cqi
scalar Tests.eNodeB.nic.mac 	cqiDlMuMimo1:lteAvg 	12.757666666667
attr source  cqiDlMuMimo1
attr title  "Average cqi MuMimo band 1, lteAvg"
attr unit  cqi
scalar Tests.eNodeB.nic.mac 	cqiDlMuMimo1:lteAvg 	14.878666666667
attr source  cqiDlMuMimo1
attr title  "Average cqi MuMimo band 1, lteAvg"
attr unit  cqi
scalar Tests.eNodeB.nic.mac 	cqiDlMuMimo1:lteAvg 	6.6236666666667
attr source  cqiDlMuMimo1
attr title  "Average cqi MuMimo band 1, lteAvg"
attr unit  cqi
scalar Tests.eNodeB.nic.mac 	cqiDlMuMimo1:lteAvg 	14.994333333333
attr source  cqiDlMuMimo1
attr title  "Average cqi MuMimo band 1, lteAvg"
attr unit  cqi
scalar Tests.eNodeB.nic.mac 	cqiDlMuMimo1:lteAvg 	14.769666666667
attr source  cqiDlMuMimo1
attr title  "Average cqi MuMimo band 1, lteAvg"
attr unit  cqi
scalar Tests.eNodeB.nic.mac 	cqiDlMuMimo1:lteAvg 	12.620666666667
attr source  cqiDlMuMimo1
attr title  "Average cqi MuMimo band 1, lteAvg"
attr unit  cqi
scalar Tests.eNodeB.nic.mac 	cqiDlMuMimo1:lteAvg 	9.1316666666667
attr source  cqiDlMuMimo1
attr title  "Average cqi MuMimo band 1, lteAvg"
attr unit  cqi
scalar Tests.eNodeB.nic.mac 	cqiDlMuMimo1:lteAvg 	12.566666666667
attr source  cqiDlMuMimo1
attr title  "Average cqi MuMimo band 1, lteAvg"
attr unit  cqi
scalar Tests.eNodeB.nic.mac 	cqiDlMuMimo1:lteAvg 	13.521333333333
attr source  cqiDlMuMimo1
attr title  "Average cqi MuMimo band 1, lteAvg"
attr unit  cqi
scalar Tests.eNodeB.nic.mac 	cqiDlMuMimo1:lteAvg 	7.8506666666667
attr source  cqiDlMuMimo1
attr title  "Average cqi MuMimo band 1, lteAvg"
attr unit  cqi
scalar Tests.eNodeB.nic.mac 	cqiDlMuMimo1:lteAvg 	11.067
attr source  cqiDlMuMimo1
attr title  "Average cqi MuMimo band 1, lteAvg"
attr unit  cqi
scalar Tests.eNodeB.nic.mac 	cqiDlMuMimo1:lteAvg 	13.881333333333
attr source  cqiDlMuMimo1
attr title  "Average cqi MuMimo band 1, lteAvg"
attr unit  cqi
scalar Tests.eNodeB.nic.mac 	cqiDlMuMimo1:lteAvg 	14.95
attr source  cqiDlMuMimo1
attr title  "Average cqi MuMimo band 1, lteAvg"
attr unit  cqi
scalar Tests.eNodeB.nic.mac 	cqiDlMuMimo1:lteAvg 	13.701
attr source  cqiDlMuMimo1
attr title  "Average cqi MuMimo band 1, lteAvg"
attr unit  cqi
scalar Tests.eNodeB.nic.mac 	cqiDlMuMimo1:lteAvg 	12.965333333333
attr source  cqiDlMuMimo1
attr title  "Average cqi MuMimo band 1, lteAvg"
attr unit  cqi
scalar Tests.eNodeB.nic.mac 	cqiDlMuMimo1:lteAvg 	13.025333333333
attr source  cqiDlMuMimo1
attr title  "Average cqi MuMimo band 1, lteAvg"
attr unit  cqi
scalar Tests.eNodeB.nic.mac 	cqiDlMuMimo1:lteAvg 	13.758333333333
attr source  cqiDlMuMimo1
attr title  "Average cqi MuMimo band 1, lteAvg"
attr unit  cqi
scalar Tests.eNodeB.nic.mac 	cqiDlMuMimo1:lteAvg 	10.087666666667
attr source  cqiDlMuMimo1
attr title  "Average cqi MuMimo band 1, lteAvg"
attr unit  cqi
scalar Tests.eNodeB.nic.mac 	cqiDlMuMimo1:lteAvg 	6.996
attr source  cqiDlMuMimo1
attr title  "Average cqi MuMimo band 1, lteAvg"
attr unit  cqi
scalar Tests.eNodeB.nic.mac 	cqiDlMuMimo1:lteAvg 	8.5973333333333
attr source  cqiDlMuMimo1
attr title  "Average cqi MuMimo band 1, lteAvg"
attr unit  cqi
scalar Tests.eNodeB.nic.mac 	cqiDlMuMimo1:lteAvg 	14.998666666667
attr source  cqiDlMuMimo1
attr title  "Average cqi MuMimo band 1, lteAvg"
attr unit  cqi
scalar Tests.eNodeB.nic.mac 	cqiDlMuMimo1:lteAvg 	9.094
attr source  cqiDlMuMimo1
attr title  "Average cqi MuMimo band 1, lteAvg"
attr unit  cqi
scalar Tests.eNodeB.nic.mac 	cqiDlMuMimo1:lteAvg 	14.963333333333
attr source  cqiDlMuMimo1
attr title  "Average cqi MuMimo band 1, lteAvg"
attr unit  cqi
scalar Tests.eNodeB.nic.mac 	cqiDlMuMimo1:lteAvg 	9.9596666666667
attr source  cqiDlMuMimo1
attr title  "Average cqi MuMimo band 1, lteAvg"
attr unit  cqi
scalar Tests.eNodeB.nic.mac 	cqiDlMuMimo0:lteAvg 	14.976333333333
attr source  cqiDlMuMimo0
attr title  "Average cqi MuMimo band 0, lteAvg"
attr unit  cqi
scalar Tests.eNodeB.nic.mac 	cqiDlMuMimo0:lteAvg 	10.072333333333
attr source  cqiDlMuMimo0
attr title  "Average cqi MuMimo band 0, lteAvg"
attr unit  cqi
scalar Tests.eNodeB.nic.mac 	cqiDlMuMimo0:lteAvg 	12.264
attr source  cqiDlMuMimo0
attr title  "Average cqi MuMimo band 0, lteAvg"
attr unit  cqi
scalar Tests.eNodeB.nic.mac 	cqiDlMuMimo0:lteAvg 	9.6833333333333
attr source  cqiDlMuMimo0
attr title  "Average cqi MuMimo band 0, lteAvg"
attr unit  cqi
scalar Tests.eNodeB.nic.mac 	cqiDlMuMimo0:lteAvg 	13.101333333333
attr source  cqiDlMuMimo0
attr title  "Average cqi MuMimo band 0, lteAvg"
attr unit  cqi
scalar Tests.eNodeB.nic.mac 	cqiDlMuMimo0:lteAvg 	13.264
attr source  cqiDlMuMimo0
attr title  "Average cqi MuMimo band 0, lteAvg"
attr unit  cqi
scalar Tests.eNodeB.nic.mac 	cqiDlMuMimo0:lteAvg 	12.441
attr source  cqiDlMuMimo0
attr title  "Average cqi MuMimo band 0, lteAvg"
attr unit  cqi
scalar Tests.eNodeB.nic.mac 	cqiDlMuMimo0:lteAvg 	13.935666666667
attr source  cqiDlMuMimo0
attr title  "Average cqi MuMimo band 0, lteAvg"
attr unit  cqi
scalar Tests.eNodeB.nic.mac 	cqiDlMuMimo0:lteAvg 	13.572
attr source  cqiDlMuMimo0
attr title  "Average cqi MuMimo band 0, lteAvg"
attr unit  cqi
scalar Tests.eNodeB.nic.mac 	cqiDlMuMimo0:lteAvg 	14.995666666667
attr source  cqiDlMuMimo0
attr title  "Average cqi MuMimo band 0, lteAvg"
attr unit  cqi
scalar Tests.eNodeB.nic.mac 	cqiDlMuMimo0:lteAvg 	14.397666666667
attr source  cqiDlMuMimo0
attr title  "Average cqi MuMimo band 0, lteAvg"
attr unit  cqi
scalar Tests.eNodeB.nic.mac 	cqiDlMuMimo0:lteAvg 	9.9496666666667
attr source  cqiDlMuMimo0
attr title  "Average cqi MuMimo band 0, lteAvg"
attr unit  cqi
scalar Tests.eNodeB.nic.mac 	cqiDlMuMimo0:lteAvg 	13.440333333333
attr source  cqiDlMuMimo0
attr title  "Average cqi MuMimo band 0, lteAvg"
attr unit  cqi
scalar Tests.eNodeB.nic.mac 	cqiDlMuMimo0:lteAvg 	14.229333333333
attr source  cqiDlMuMimo0
attr title  "Average cqi MuMimo band 0, lteAvg"
attr unit  cqi
scalar Tests.eNodeB.nic.mac 	cqiDlMuMimo0:lteAvg 	14.520333333333
attr source  cqiDlMuMimo0
attr title  "Average cqi MuMimo band 0, lteAvg"
attr unit  cqi
scalar Tests.eNodeB.nic.mac 	cqiDlMuMimo0:lteAvg 	7.252
attr source  cqiDlMuMimo0
attr title  "Average cqi MuMimo band 0, lteAvg"
attr unit  cqi
scalar Tests.eNodeB.nic.mac 	cqiDlMuMimo0:lteAvg 	9.567
attr source  cqiDlMuMimo0
attr title  "Average cqi MuMimo band 0, lteAvg"
attr unit  cqi
scalar Tests.eNodeB.nic.mac 	cqiDlMuMimo0:lteAvg 	14.44
attr source  cqiDlMuMimo0
attr title  "Average cqi MuMimo band 0, lteAvg"
attr unit  cqi
scalar Tests.eNodeB.nic.mac 	cqiDlMuMimo0:lteAvg 	14.972333333333
attr source  cqiDlMuMimo0
attr title  "Average cqi MuMimo band 0, lteAvg"
attr unit  cqi
scalar Tests.eNodeB.nic.mac 	cqiDlMuMimo0:lteAvg 	14.416333333333
attr source  cqiDlMuMimo0
attr title  "Average cqi MuMimo band 0, lteAvg"
attr unit  cqi
scalar Tests.eNodeB.nic.mac 	cqiDlMuMimo0:lteAvg 	13.972666666667
attr source  cqiDlMuMimo0
attr title  "Average cqi MuMimo band 0, lteAvg"
attr unit  cqi
scalar Tests.eNodeB.nic.mac 	cqiDlMuMimo0:lteAvg 	5.1383333333333
attr source  cqiDlMuMimo0
attr title  "Average cqi MuMimo band 0, lteAvg"
attr unit  cqi
scalar Tests.eNodeB.nic.mac 	cqiDlMuMimo0:lteAvg 	13.897333333333
attr source  cqiDlMuMimo0
attr title  "Average cqi MuMimo band 0, lteAvg"
attr unit  cqi
scalar Tests.eNodeB.nic.mac 	cqiDlMuMimo0:lteAvg 	11.782666666667
attr source  cqiDlMuMimo0
attr title  "Average cqi MuMimo band 0, lteAvg"
attr unit  cqi
scalar Tests.eNodeB.nic.mac 	cqiDlMuMimo0:lteAvg 	12.592333333333
attr source  cqiDlMuMimo0
attr title  "Average cqi MuMimo band 0, lteAvg"
attr unit  cqi
scalar Tests.eNodeB.nic.mac 	cqiDlMuMimo0:lteAvg 	11.496
attr source  cqiDlMuMimo0
attr title  "Average cqi MuMimo band 0, lteAvg"
attr unit  cqi
scalar Tests.eNodeB.nic.mac 	cqiDlMuMimo0:lteAvg 	14.992333333333
attr source  cqiDlMuMimo0
attr title  "Average cqi MuMimo band 0, lteAvg"
attr unit  cqi
scalar Tests.eNodeB.nic.mac 	cqiDlMuMimo0:lteAvg 	10.145666666667
attr source  cqiDlMuMimo0
attr title  "Average cqi MuMimo band 0, lteAvg"
attr unit  cqi
scalar Tests.eNodeB.nic.mac 	cqiDlMuMimo0:lteAvg 	14.86
attr source  cqiDlMuMimo0
attr title  "Average cqi MuMimo band 0, lteAvg"
attr unit  cqi
scalar Tests.eNodeB.nic.mac 	cqiDlMuMimo0:lteAvg 	9.9083333333333
attr source  cqiDlMuMimo0
attr title  "Average cqi MuMimo band 0, lteAvg"
attr unit  cqi
scalar Tests.eNodeB.nic.mac 	cqiDlTxDiv4:lteAvg 	15
attr source  cqiDlTxDiv4
attr title  "Average cqi TxDiv band 4, lteAvg"
attr unit  cqi
scalar Tests.eNodeB.nic.mac 	cqiDlTxDiv4:lteAvg 	13.8
attr source  cqiDlTxDiv4
attr title  "Average cqi TxDiv band 4, lteAvg"
attr unit  cqi
scalar Tests.eNodeB.nic.mac 	cqiDlTxDiv4:lteAvg 	15
attr source  cqiDlTxDiv4
attr title  "Average cqi TxDiv band 4, lteAvg"
attr unit  cqi
scalar Tests.eNodeB.nic.mac 	cqiDlTxDiv4:lteAvg 	14.993666666667
attr source  cqiDlTxDiv4
attr title  "Average cqi TxDiv band 4, lteAvg"
attr unit  cqi
scalar Tests.eNodeB.nic.mac 	cqiDlTxDiv4:lteAvg 	15
attr source  cqiDlTxDiv4
attr title  "Average cqi TxDiv band 4, lteAvg"
attr unit  cqi
scalar Tests.eNodeB.nic.mac 	cqiDlTxDiv4:lteAvg 	14.999
attr source  cqiDlTxDiv4
attr title  "Average cqi TxDiv band 4, lteAvg"
attr unit  cqi
scalar Tests.eNodeB.nic.mac 	cqiDlTxDiv4:lteAvg 	14.98
attr source  cqiDlTxDiv4
attr title  "Average cqi TxDiv band 4, lteAvg"
attr unit  cqi
scalar Tests.eNodeB.nic.mac 	cqiDlTxDiv4:lteAvg 	14.804333333333
attr source  cqiDlTxDiv4
attr title  "Average cqi TxDiv band 4, lteAvg"
attr unit  cqi
scalar Tests.eNodeB.nic.mac 	cqiDlTxDiv4:lteAvg 	14.994333333333
attr source  cqiDlTxDiv4
attr title  "Average cqi TxDiv band 4, lteAvg"
attr unit  cqi
scalar Tests.eNodeB.nic.mac 	cqiDlTxDiv4:lteAvg 	15
attr source  cqiDlTxDiv4
attr title  "Average cqi TxDiv band 4, lteAvg"
attr unit  cqi
scalar Tests.eNodeB.nic.mac 	cqiDlTxDiv4:lteAvg 	15
attr source  cqiDlTxDiv4
attr title  "Average cqi TxDiv band 4, lteAvg"
attr unit  cqi
scalar Tests.eNodeB.nic.mac 	cqiDlTxDiv4:lteAvg 	14.985
attr source  cqiDlTxDiv4
attr title  "Average cqi TxDiv band 4, lteAvg"
attr unit  cqi
scalar Tests.eNodeB.nic.mac 	cqiDlTxDiv4:lteAvg 	14.983666666667
attr source  cqiDlTxDiv4
attr title  "Average cqi TxDiv band 4, lteAvg"
attr unit  cqi
scalar Tests.eNodeB.nic.mac 	cqiDlTxDiv4:lteAvg 	14.994666666667
attr source  cqiDlTxDiv4
attr title  "Average cqi TxDiv band 4, lteAvg"
attr unit  cqi
scalar Tests.eNodeB.nic.mac 	cqiDlTxDiv4:lteAvg 	14.989666666667
attr source  cqiDlTxDiv4
attr title  "Average cqi TxDiv band 4, lteAvg"
attr unit  cqi
scalar Tests.eNodeB.nic.mac 	cqiDlTxDiv4:lteAvg 	14.478
attr source  cqiDlTxDiv4
attr title  "Average cqi TxDiv band 4, lteAvg"
attr unit  cqi
scalar Tests.eNodeB.nic.mac 	cqiDlTxDiv4:lteAvg 	14.454666666667
attr source  cqiDlTxDiv4
attr title  "Average cqi TxDiv band 4, lteAvg"
attr unit  cqi
scalar Tests.eNodeB.nic.mac 	cqiDlTxDiv4:lteAvg 	14.999333333333
attr source  cqiDlTxDiv4
attr title  "Average cqi TxDiv band 4, lteAvg"
attr unit  cqi
scalar Tests.eNodeB.nic.mac 	cqiDlTxDiv4:lteAvg 	14.997
attr source  cqiDlTxDiv4
attr title  "Average cqi TxDiv band 4, lteAvg"
attr unit  cqi
scalar Tests.eNodeB.nic.mac 	cqiDlTxDiv4:lteAvg 	14.913666666667
attr source  cqiDlTxDiv4
attr title  "Average cqi TxDiv band 4, lteAvg"
attr unit  cqi
scalar Tests.eNodeB.nic.mac 	cqiDlTxDiv4:lteAvg 	14.999
attr source  cqiDlTxDiv4
attr title  "Average cqi TxDiv band 4, lteAvg"
attr unit  cqi
scalar Tests.eNodeB.nic.mac 	cqiDlTxDiv4:lteAvg 	14.987666666667
attr source  cqiDlTxDiv4
attr title  "Average cqi TxDiv band 4, lteAvg"
attr unit  cqi
scalar Tests.eNodeB.nic.mac 	cqiDlTxDiv4:lteAvg 	14.992333333333
attr source  cqiDlTxDiv4
attr title  "Average cqi TxDiv band 4, lteAvg"
attr unit  cqi
scalar Tests.eNodeB.nic.mac 	cqiDlTxDiv4:lteAvg 	14.949
attr source  cqiDlTxDiv4
attr title  "Average cqi TxDiv band 4, lteAvg"
attr unit  cqi
scalar Tests.eNodeB.nic.mac 	cqiDlTxDiv4:lteAvg 	14.990666666667
attr source  cqiDlTxDiv4
attr title  "Average cqi TxDiv band 4, lteAvg"
attr unit  cqi
scalar Tests.eNodeB.nic.mac 	cqiDlTxDiv4:lteAvg 	14.992
attr source  cqiDlTxDiv4
attr title  "Average cqi TxDiv band 4, lteAvg"
attr unit  cqi
scalar Tests.eNodeB.nic.mac 	cqiDlTxDiv4:lteAvg 	14.997666666667
attr source  cqiDlTxDiv4
attr title  "Average cqi TxDiv band 4, lteAvg"
attr unit  cqi
scalar Tests.eNodeB.nic.mac 	cqiDlTxDiv4:lteAvg 	14.984
attr source  cqiDlTxDiv4
attr title  "Average cqi TxDiv band 4, lteAvg"
attr unit  cqi
scalar Tests.eNodeB.nic.mac 	cqiDlTxDiv4:lteAvg 	15
attr source  cqiDlTxDiv4
attr title  "Average cqi TxDiv band 4, lteAvg"
attr unit  cqi
scalar Tests.eNodeB.nic.mac 	cqiDlTxDiv4:lteAvg 	14.970333333333
attr source  cqiDlTxDiv4
attr title  "Average cqi TxDiv band 4, lteAvg"
attr unit  cqi
scalar Tests.eNodeB.nic.mac 	cqiDlTxDiv3:lteAvg 	15
attr source  cqiDlTxDiv3
attr title  "Average cqi TxDiv band 3, lteAvg"
attr unit  cqi
scalar Tests.eNodeB.nic.mac 	cqiDlTxDiv3:lteAvg 	15
attr source  cqiDlTxDiv3
attr title  "Average cqi TxDiv band 3, lteAvg"
attr unit  cqi
scalar Tests.eNodeB.nic.mac 	cqiDlTxDiv3:lteAvg 	14.998333333333
attr source  cqiDlTxDiv3
attr title  "Average cqi TxDiv band 3, lteAvg"
attr unit  cqi
scalar Tests.eNodeB.nic.mac 	cqiDlTxDiv3:lteAvg 	14.995333333333
attr source  cqiDlTxDiv3
attr title  "Average cqi TxDiv band 3, lteAvg"
attr unit  cqi
scalar Tests.eNodeB.nic.mac 	cqiDlTxDiv3:lteAvg 	15
attr source  cqiDlTxDiv3
attr title  "Average cqi TxDiv band 3, lteAvg"
attr unit  cqi
scalar Tests.eNodeB.nic.mac 	cqiDlTxDiv3:lteAvg 	15
attr source  cqiDlTxDiv3
attr title  "Average cqi TxDiv band 3, lteAvg"
attr unit  cqi
scalar Tests.eNodeB.nic.mac 	cqiDlTxDiv3:lteAvg 	14.992333333333
attr source  cqiDlTxDiv3
attr title  "Average cqi TxDiv band 3, lteAvg"
attr unit  cqi
scalar Tests.eNodeB.nic.mac 	cqiDlTxDiv3:lteAvg 	15
attr source  cqiDlTxDiv3
attr title  "Average cqi TxDiv band 3, lteAvg"
attr unit  cqi
scalar Tests.eNodeB.nic.mac 	cqiDlTxDiv3:lteAvg 	14.996333333333
attr source  cqiDlTxDiv3
attr title  "Average cqi TxDiv band 3, lteAvg"
attr unit  cqi
scalar Tests.eNodeB.nic.mac 	cqiDlTxDiv3:lteAvg 	15
attr source  cqiDlTxDiv3
attr title  "Average cqi TxDiv band 3, lteAvg"
attr unit  cqi
scalar Tests.eNodeB.nic.mac 	cqiDlTxDiv3:lteAvg 	15
attr source  cqiDlTxDiv3
attr title  "Average cqi TxDiv band 3, lteAvg"
attr unit  cqi
scalar Tests.eNodeB.nic.mac 	cqiDlTxDiv3:lteAvg 	14.989333333333
attr source  cqiDlTxDiv3
attr title  "Average cqi TxDiv band 3, lteAvg"
attr unit  cqi
scalar Tests.eNodeB.nic.mac 	cqiDlTxDiv3:lteAvg 	14.993333333333
attr source  cqiDlTxDiv3
attr title  "Average cqi TxDiv band 3, lteAvg"
attr unit  cqi
scalar Tests.eNodeB.nic.mac 	cqiDlTxDiv3:lteAvg 	14.999
attr source  cqiDlTxDiv3
attr title  "Average cqi TxDiv band 3, lteAvg"
attr unit  cqi
scalar Tests.eNodeB.nic.mac 	cqiDlTxDiv3:lteAvg 	14.374333333333
attr source  cqiDlTxDiv3
attr title  "Average cqi TxDiv band 3, lteAvg"
attr unit  cqi
scalar Tests.eNodeB.nic.mac 	cqiDlTxDiv3:lteAvg 	9.984
attr source  cqiDlTxDiv3
attr title  "Average cqi TxDiv band 3, lteAvg"
attr unit  cqi
scalar Tests.eNodeB.nic.mac 	cqiDlTxDiv3:lteAvg 	14.616333333333
attr source  cqiDlTxDiv3
attr title  "Average cqi TxDiv band 3, lteAvg"
attr unit  cqi
scalar Tests.eNodeB.nic.mac 	cqiDlTxDiv3:lteAvg 	14.99
attr source  cqiDlTxDiv3
attr title  "Average cqi TxDiv band 3, lteAvg"
attr unit  cqi
scalar Tests.eNodeB.nic.mac 	cqiDlTxDiv3:lteAvg 	14.925333333333
attr source  cqiDlTxDiv3
attr title  "Average cqi TxDiv band 3, lteAvg"
attr unit  cqi
scalar Tests.eNodeB.nic.mac 	cqiDlTxDiv3:lteAvg 	14.997666666667
attr source  cqiDlTxDiv3
attr title  "Average cqi TxDiv band 3, lteAvg"
attr unit  cqi
scalar Tests.eNodeB.nic.mac 	cqiDlTxDiv3:lteAvg 	14.995333333333
attr source  cqiDlTxDiv3
attr title  "Average cqi TxDiv band 3, lteAvg"
attr unit  cqi
scalar Tests.eNodeB.nic.mac 	cqiDlTxDiv3:lteAvg 	14.987333333333
attr source  cqiDlTxDiv3
attr title  "Average cqi TxDiv band 3, lteAvg"
attr unit  cqi
scalar Tests.eNodeB.nic.mac 	cqiDlTxDiv3:lteAvg 	14.994333333333
attr source  cqiDlTxDiv3
attr title  "Average cqi TxDiv band 3, lteAvg"
attr unit  cqi
scalar Tests.eNodeB.nic.mac 	cqiDlTxDiv3:lteAvg 	14.075
attr source  cqiDlTxDiv3
attr title  "Average cqi TxDiv band 3, lteAvg"
attr unit  cqi
scalar Tests.eNodeB.nic.mac 	cqiDlTxDiv3:lteAvg 	13.629
attr source  cqiDlTxDiv3
attr title  "Average cqi TxDiv band 3, lteAvg"
attr unit  cqi
scalar Tests.eNodeB.nic.mac 	cqiDlTxDiv3:lteAvg 	14.978
attr source  cqiDlTxDiv3
attr title  "Average cqi TxDiv band 3, lteAvg"
attr unit  cqi
scalar Tests.eNodeB.nic.mac 	cqiDlTxDiv3:lteAvg 	15
attr source  cqiDlTxDiv3
attr title  "Average cqi TxDiv band 3, lteAvg"
attr unit  cqi
scalar Tests.eNodeB.nic.mac 	cqiDlTxDiv3:lteAvg 	4.005
attr source  cqiDlTxDiv3
attr title  "Average cqi TxDiv band 3, lteAvg"
attr unit  cqi
scalar Tests.eNodeB.nic.mac 	cqiDlTxDiv3:lteAvg 	14.998666666667
attr source  cqiDlTxDiv3
attr title  "Average cqi TxDiv band 3, lteAvg"
attr unit  cqi
scalar Tests.eNodeB.nic.mac 	cqiDlTxDiv3:lteAvg 	13.870666666667
attr source  cqiDlTxDiv3
attr title  "Average cqi TxDiv band 3, lteAvg"
attr unit  cqi
scalar Tests.eNodeB.nic.mac 	cqiDlTxDiv2:lteAvg 	15
attr source  cqiDlTxDiv2
attr title  "Average cqi TxDiv band 2, lteAvg"
attr unit  cqi
scalar Tests.eNodeB.nic.mac 	cqiDlTxDiv2:lteAvg 	14.4
attr source  cqiDlTxDiv2
attr title  "Average cqi TxDiv band 2, lteAvg"
attr unit  cqi
scalar Tests.eNodeB.nic.mac 	cqiDlTxDiv2:lteAvg 	15
attr source  cqiDlTxDiv2
attr title  "Average cqi TxDiv band 2, lteAvg"
attr unit  cqi
scalar Tests.eNodeB.nic.mac 	cqiDlTxDiv2:lteAvg 	14.982333333333
attr source  cqiDlTxDiv2
attr title  "Average cqi TxDiv band 2, lteAvg"
attr unit  cqi
scalar Tests.eNodeB.nic.mac 	cqiDlTxDiv2:lteAvg 	15
attr source  cqiDlTxDiv2
attr title  "Average cqi TxDiv band 2, lteAvg"
attr unit  cqi
scalar Tests.eNodeB.nic.mac 	cqiDlTxDiv2:lteAvg 	10.065666666667
attr source  cqiDlTxDiv2
attr title  "Average cqi TxDiv band 2, lteAvg"
attr unit  cqi
scalar Tests.eNodeB.nic.mac 	cqiDlTxDiv2:lteAvg 	14.996333333333
attr source  cqiDlTxDiv2
attr title  "Average cqi TxDiv band 2, lteAvg"
attr unit  cqi
scalar Tests.eNodeB.nic.mac 	cqiDlTxDiv2:lteAvg 	15
attr source  cqiDlTxDiv2
attr title  "Average cqi TxDiv band 2, lteAvg"
attr unit  cqi
scalar Tests.eNodeB.nic.mac 	cqiDlTxDiv2:lteAvg 	14.996
attr source  cqiDlTxDiv2
attr title  "Average cqi TxDiv band 2, lteAvg"
attr unit  cqi
scalar Tests.eNodeB.nic.mac 	cqiDlTxDiv2:lteAvg 	14.998
attr source  cqiDlTxDiv2
attr title  "Average cqi TxDiv band 2, lteAvg"
attr unit  cqi
scalar Tests.eNodeB.nic.mac 	cqiDlTxDiv2:lteAvg 	15
attr source  cqiDlTxDiv2
attr title  "Average cqi TxDiv band 2, lteAvg"
attr unit  cqi
scalar Tests.eNodeB.nic.mac 	cqiDlTxDiv2:lteAvg 	14.985
attr source  cqiDlTxDiv2
attr title  "Average cqi TxDiv band 2, lteAvg"
attr unit  cqi
scalar Tests.eNodeB.nic.mac 	cqiDlTxDiv2:lteAvg 	14.986
attr source  cqiDlTxDiv2
attr title  "Average cqi TxDiv band 2, lteAvg"
attr unit  cqi
scalar Tests.eNodeB.nic.mac 	cqiDlTxDiv2:lteAvg 	14.811
attr source  cqiDlTxDiv2
attr title  "Average cqi TxDiv band 2, lteAvg"
attr unit  cqi
scalar Tests.eNodeB.nic.mac 	cqiDlTxDiv2:lteAvg 	14.995333333333
attr source  cqiDlTxDiv2
attr title  "Average cqi TxDiv band 2, lteAvg"
attr unit  cqi
scalar Tests.eNodeB.nic.mac 	cqiDlTxDiv2:lteAvg 	12.960666666667
attr source  cqiDlTxDiv2
attr title  "Average cqi TxDiv band 2, lteAvg"
attr unit  cqi
scalar Tests.eNodeB.nic.mac 	cqiDlTxDiv2:lteAvg 	14.404666666667
attr source  cqiDlTxDiv2
attr title  "Average cqi TxDiv band 2, lteAvg"
attr unit  cqi
scalar Tests.eNodeB.nic.mac 	cqiDlTxDiv2:lteAvg 	14.990333333333
attr source  cqiDlTxDiv2
attr title  "Average cqi TxDiv band 2, lteAvg"
attr unit  cqi
scalar Tests.eNodeB.nic.mac 	cqiDlTxDiv2:lteAvg 	15
attr source  cqiDlTxDiv2
attr title  "Average cqi TxDiv band 2, lteAvg"
attr unit  cqi
scalar Tests.eNodeB.nic.mac 	cqiDlTxDiv2:lteAvg 	14.999333333333
attr source  cqiDlTxDiv2
attr title  "Average cqi TxDiv band 2, lteAvg"
attr unit  cqi
scalar Tests.eNodeB.nic.mac 	cqiDlTxDiv2:lteAvg 	14.878
attr source  cqiDlTxDiv2
attr title  "Average cqi TxDiv band 2, lteAvg"
attr unit  cqi
scalar Tests.eNodeB.nic.mac 	cqiDlTxDiv2:lteAvg 	14.977
attr source  cqiDlTxDiv2
attr title  "Average cqi TxDiv band 2, lteAvg"
attr unit  cqi
scalar Tests.eNodeB.nic.mac 	cqiDlTxDiv2:lteAvg 	14.994333333333
attr source  cqiDlTxDiv2
attr title  "Average cqi TxDiv band 2, lteAvg"
attr unit  cqi
scalar Tests.eNodeB.nic.mac 	cqiDlTxDiv2:lteAvg 	14.878333333333
attr source  cqiDlTxDiv2
attr title  "Average cqi TxDiv band 2, lteAvg"
attr unit  cqi
scalar Tests.eNodeB.nic.mac 	cqiDlTxDiv2:lteAvg 	14.987666666667
attr source  cqiDlTxDiv2
attr title  "Average cqi TxDiv band 2, lteAvg"
attr unit  cqi
scalar Tests.eNodeB.nic.mac 	cqiDlTxDiv2:lteAvg 	14.909
attr source  cqiDlTxDiv2
attr title  "Average cqi TxDiv band 2, lteAvg"
attr unit  cqi
scalar Tests.eNodeB.nic.mac 	cqiDlTxDiv2:lteAvg 	15
attr source  cqiDlTxDiv2
attr title  "Average cqi TxDiv band 2, lteAvg"
attr unit  cqi
scalar Tests.eNodeB.nic.mac 	cqiDlTxDiv2:lteAvg 	14.533
attr source  cqiDlTxDiv2
attr title  "Average cqi TxDiv band 2, lteAvg"
attr unit  cqi
scalar Tests.eNodeB.nic.mac 	cqiDlTxDiv2:lteAvg 	14.995333333333
attr source  cqiDlTxDiv2
attr title  "Average cqi TxDiv band 2, lteAvg"
attr unit  cqi
scalar Tests.eNodeB.nic.mac 	cqiDlTxDiv2:lteAvg 	14.964333333333
attr source  cqiDlTxDiv2
attr title  "Average cqi TxDiv band 2, lteAvg"
attr unit  cqi
scalar Tests.eNodeB.nic.mac 	cqiDlTxDiv1:lteAvg 	14.999333333333
attr source  cqiDlTxDiv1
attr title  "Average cqi TxDiv band 1, lteAvg"
attr unit  cqi
scalar Tests.eNodeB.nic.mac 	cqiDlTxDiv1:lteAvg 	13.65
attr source  cqiDlTxDiv1
attr title  "Average cqi TxDiv band 1, lteAvg"
attr unit  cqi
scalar Tests.eNodeB.nic.mac 	cqiDlTxDiv1:lteAvg 	14.998666666667
attr source  cqiDlTxDiv1
attr title  "Average cqi TxDiv band 1, lteAvg"
attr unit  cqi
scalar Tests.eNodeB.nic.mac 	cqiDlTxDiv1:lteAvg 	14.984333333333
attr source  cqiDlTxDiv1
attr title  "Average cqi TxDiv band 1, lteAvg"
attr unit  cqi
scalar Tests.eNodeB.nic.mac 	cqiDlTxDiv1:lteAvg 	15
attr source  cqiDlTxDiv1
attr title  "Average cqi TxDiv band 1, lteAvg"
attr unit  cqi
scalar Tests.eNodeB.nic.mac 	cqiDlTxDiv1:lteAvg 	15
attr source  cqiDlTxDiv1
attr title  "Average cqi TxDiv band 1, lteAvg"
attr unit  cqi
scalar Tests.eNodeB.nic.mac 	cqiDlTxDiv1:lteAvg 	14.992
attr source  cqiDlTxDiv1
attr title  "Average cqi TxDiv band 1, lteAvg"
attr unit  cqi
scalar Tests.eNodeB.nic.mac 	cqiDlTxDiv1:lteAvg 	14.993
attr source  cqiDlTxDiv1
attr title  "Average cqi TxDiv band 1, lteAvg"
attr unit  cqi
scalar Tests.eNodeB.nic.mac 	cqiDlTxDiv1:lteAvg 	14.293333333333
attr source  cqiDlTxDiv1
attr title  "Average cqi TxDiv band 1, lteAvg"
attr unit  cqi
scalar Tests.eNodeB.nic.mac 	cqiDlTxDiv1:lteAvg 	15
attr source  cqiDlTxDiv1
attr title  "Average cqi TxDiv band 1, lteAvg"
attr unit  cqi
scalar Tests.eNodeB.nic.mac 	cqiDlTxDiv1:lteAvg 	15
attr source  cqiDlTxDiv1
attr title  "Average cqi TxDiv band 1, lteAvg"
attr unit  cqi
scalar Tests.eNodeB.nic.mac 	cqiDlTxDiv1:lteAvg 	14.978666666667
attr source  cqiDlTxDiv1
attr title  "Average cqi TxDiv band 1, lteAvg"
attr unit  cqi
scalar Tests.eNodeB.nic.mac 	cqiDlTxDiv1:lteAvg 	14.786
attr source  cqiDlTxDiv1
attr title  "Average cqi TxDiv band 1, lteAvg"
attr unit  cqi
scalar Tests.eNodeB.nic.mac 	cqiDlTxDiv1:lteAvg 	14.668666666667
attr source  cqiDlTxDiv1
attr title  "Average cqi TxDiv band 1, lteAvg"
attr unit  cqi
scalar Tests.eNodeB.nic.mac 	cqiDlTxDiv1:lteAvg 	14.999333333333
attr source  cqiDlTxDiv1
attr title  "Average cqi TxDiv band 1, lteAvg"
attr unit  cqi
scalar Tests.eNodeB.nic.mac 	cqiDlTxDiv1:lteAvg 	14.926
attr source  cqiDlTxDiv1
attr title  "Average cqi TxDiv band 1, lteAvg"
attr unit  cqi
scalar Tests.eNodeB.nic.mac 	cqiDlTxDiv1:lteAvg 	14.554666666667
attr source  cqiDlTxDiv1
attr title  "Average cqi TxDiv band 1, lteAvg"
attr unit  cqi
scalar Tests.eNodeB.nic.mac 	cqiDlTxDiv1:lteAvg 	14.991666666667
attr source  cqiDlTxDiv1
attr title  "Average cqi TxDiv band 1, lteAvg"
attr unit  cqi
scalar Tests.eNodeB.nic.mac 	cqiDlTxDiv1:lteAvg 	15
attr source  cqiDlTxDiv1
attr title  "Average cqi TxDiv band 1, lteAvg"
attr unit  cqi
scalar Tests.eNodeB.nic.mac 	cqiDlTxDiv1:lteAvg 	14.998666666667
attr source  cqiDlTxDiv1
attr title  "Average cqi TxDiv band 1, lteAvg"
attr unit  cqi
scalar Tests.eNodeB.nic.mac 	cqiDlTxDiv1:lteAvg 	14.998666666667
attr source  cqiDlTxDiv1
attr title  "Average cqi TxDiv band 1, lteAvg"
attr unit  cqi
scalar Tests.eNodeB.nic.mac 	cqiDlTxDiv1:lteAvg 	14.984666666667
attr source  cqiDlTxDiv1
attr title  "Average cqi TxDiv band 1, lteAvg"
attr unit  cqi
scalar Tests.eNodeB.nic.mac 	cqiDlTxDiv1:lteAvg 	14.995
attr source  cqiDlTxDiv1
attr title  "Average cqi TxDiv band 1, lteAvg"
attr unit  cqi
scalar Tests.eNodeB.nic.mac 	cqiDlTxDiv1:lteAvg 	14.949333333333
attr source  cqiDlTxDiv1
attr title  "Average cqi TxDiv band 1, lteAvg"
attr unit  cqi
scalar Tests.eNodeB.nic.mac 	cqiDlTxDiv1:lteAvg 	14.474
attr source  cqiDlTxDiv1
attr title  "Average cqi TxDiv band 1, lteAvg"
attr unit  cqi
scalar Tests.eNodeB.nic.mac 	cqiDlTxDiv1:lteAvg 	14.315
attr source  cqiDlTxDiv1
attr title  "Average cqi TxDiv band 1, lteAvg"
attr unit  cqi
scalar Tests.eNodeB.nic.mac 	cqiDlTxDiv1:lteAvg 	15
attr source  cqiDlTxDiv1
attr title  "Average cqi TxDiv band 1, lteAvg"
attr unit  cqi
scalar Tests.eNodeB.nic.mac 	cqiDlTxDiv1:lteAvg 	14.763
attr source  cqiDlTxDiv1
attr title  "Average cqi TxDiv band 1, lteAvg"
attr unit  cqi
scalar Tests.eNodeB.nic.mac 	cqiDlTxDiv1:lteAvg 	14.999333333333
attr source  cqiDlTxDiv1
attr title  "Average cqi TxDiv band 1, lteAvg"
attr unit  cqi
scalar Tests.eNodeB.nic.mac 	cqiDlTxDiv1:lteAvg 	14.963
attr source  cqiDlTxDiv1
attr title  "Average cqi TxDiv band 1, lteAvg"
attr unit  cqi
scalar Tests.eNodeB.nic.mac 	cqiDlTxDiv0:lteAvg 	15
attr source  cqiDlTxDiv0
attr title  "Average cqi TxDiv band 0, lteAvg"
attr unit  cqi
scalar Tests.eNodeB.nic.mac 	cqiDlTxDiv0:lteAvg 	14.7
attr source  cqiDlTxDiv0
attr title  "Average cqi TxDiv band 0, lteAvg"
attr unit  cqi
scalar Tests.eNodeB.nic.mac 	cqiDlTxDiv0:lteAvg 	15
attr source  cqiDlTxDiv0
attr title  "Average cqi TxDiv band 0, lteAvg"
attr unit  cqi
scalar Tests.eNodeB.nic.mac 	cqiDlTxDiv0:lteAvg 	14.997
attr source  cqiDlTxDiv0
attr title  "Average cqi TxDiv band 0, lteAvg"
attr unit  cqi
scalar Tests.eNodeB.nic.mac 	cqiDlTxDiv0:lteAvg 	14.870666666667
attr source  cqiDlTxDiv0
attr title  "Average cqi TxDiv band 0, lteAvg"
attr unit  cqi
scalar Tests.eNodeB.nic.mac 	cqiDlTxDiv0:lteAvg 	15
attr source  cqiDlTxDiv0
attr title  "Average cqi TxDiv band 0, lteAvg"
attr unit  cqi
scalar Tests.eNodeB.nic.mac 	cqiDlTxDiv0:lteAvg 	14.983666666667
attr source  cqiDlTxDiv0
attr title  "Average cqi TxDiv band 0, lteAvg"
attr unit  cqi
scalar Tests.eNodeB.nic.mac 	cqiDlTxDiv0:lteAvg 	14.999333333333
attr source  cqiDlTxDiv0
attr title  "Average cqi TxDiv band 0, lteAvg"
attr unit  cqi
scalar Tests.eNodeB.nic.mac 	cqiDlTxDiv0:lteAvg 	14.998
attr source  cqiDlTxDiv0
attr title  "Average cqi TxDiv band 0, lteAvg"
attr unit  cqi
scalar Tests.eNodeB.nic.mac 	cqiDlTxDiv0:lteAvg 	15
attr source  cqiDlTxDiv0
attr title  "Average cqi TxDiv band 0, lteAvg"
attr unit  cqi
scalar Tests.eNodeB.nic.mac 	cqiDlTxDiv0:lteAvg 	14.999666666667
attr source  cqiDlTxDiv0
attr title  "Average cqi TxDiv band 0, lteAvg"
attr unit  cqi
scalar Tests.eNodeB.nic.mac 	cqiDlTxDiv0:lteAvg 	14.977
attr source  cqiDlTxDiv0
attr title  "Average cqi TxDiv band 0, lteAvg"
attr unit  cqi
scalar Tests.eNodeB.nic.mac 	cqiDlTxDiv0:lteAvg 	14.971333333333
attr source  cqiDlTxDiv0
attr title  "Average cqi TxDiv band 0, lteAvg"
attr unit  cqi
scalar Tests.eNodeB.nic.mac 	cqiDlTxDiv0:lteAvg 	14.997
attr source  cqiDlTxDiv0
attr title  "Average cqi TxDiv band 0, lteAvg"
attr unit  cqi
scalar Tests.eNodeB.nic.mac 	cqiDlTxDiv0:lteAvg 	14.994666666667
attr source  cqiDlTxDiv0
attr title  "Average cqi TxDiv band 0, lteAvg"
attr unit  cqi
scalar Tests.eNodeB.nic.mac 	cqiDlTxDiv0:lteAvg 	14.770666666667
attr source  cqiDlTxDiv0
attr title  "Average cqi TxDiv band 0, lteAvg"
attr unit  cqi
scalar Tests.eNodeB.nic.mac 	cqiDlTxDiv0:lteAvg 	14.098666666667
attr source  cqiDlTxDiv0
attr title  "Average cqi TxDiv band 0, lteAvg"
attr unit  cqi
scalar Tests.eNodeB.nic.mac 	cqiDlTxDiv0:lteAvg 	14.996666666667
attr source  cqiDlTxDiv0
attr title  "Average cqi TxDiv band 0, lteAvg"
attr unit  cqi
scalar Tests.eNodeB.nic.mac 	cqiDlTxDiv0:lteAvg 	15
attr source  cqiDlTxDiv0
attr title  "Average cqi TxDiv band 0, lteAvg"
attr unit  cqi
scalar Tests.eNodeB.nic.mac 	cqiDlTxDiv0:lteAvg 	14.999333333333
attr source  cqiDlTxDiv0
attr title  "Average cqi TxDiv band 0, lteAvg"
attr unit  cqi
scalar Tests.eNodeB.nic.mac 	cqiDlTxDiv0:lteAvg 	14.994666666667
attr source  cqiDlTxDiv0
attr title  "Average cqi TxDiv band 0, lteAvg"
attr unit  cqi
scalar Tests.eNodeB.nic.mac 	cqiDlTxDiv0:lteAvg 	13.624333333333
attr source  cqiDlTxDiv0
attr title  "Average cqi TxDiv band 0, lteAvg"
attr unit  cqi
scalar Tests.eNodeB.nic.mac 	cqiDlTxDiv0:lteAvg 	14.994333333333
attr source  cqiDlTxDiv0
attr title  "Average cqi TxDiv band 0, lteAvg"
attr unit  cqi
scalar Tests.eNodeB.nic.mac 	cqiDlTxDiv0:lteAvg 	14.951666666667
attr source  cqiDlTxDiv0
attr title  "Average cqi TxDiv band 0, lteAvg"
attr unit  cqi
scalar Tests.eNodeB.nic.mac 	cqiDlTxDiv0:lteAvg 	14.994333333333
attr source  cqiDlTxDiv0
attr title  "Average cqi TxDiv band 0, lteAvg"
attr unit  cqi
scalar Tests.eNodeB.nic.mac 	cqiDlTxDiv0:lteAvg 	14.916333333333
attr source  cqiDlTxDiv0
attr title  "Average cqi TxDiv band 0, lteAvg"
attr unit  cqi
scalar Tests.eNodeB.nic.mac 	cqiDlTxDiv0:lteAvg 	15
attr source  cqiDlTxDiv0
attr title  "Average cqi TxDiv band 0, lteAvg"
attr unit  cqi
scalar Tests.eNodeB.nic.mac 	cqiDlTxDiv0:lteAvg 	14.87
attr source  cqiDlTxDiv0
attr title  "Average cqi TxDiv band 0, lteAvg"
attr unit  cqi
scalar Tests.eNodeB.nic.mac 	cqiDlTxDiv0:lteAvg 	15
attr source  cqiDlTxDiv0
attr title  "Average cqi TxDiv band 0, lteAvg"
attr unit  cqi
scalar Tests.eNodeB.nic.mac 	cqiDlTxDiv0:lteAvg 	14.973666666667
attr source  cqiDlTxDiv0
attr title  "Average cqi TxDiv band 0, lteAvg"
attr unit  cqi
scalar Tests.eNodeB.nic.mac 	cqiDlSpmux4:lteAvg 	14.973666666667
attr source  cqiDlSpmux4
attr title  "Average cqi Spmux band 4, lteAvg"
attr unit  cqi
scalar Tests.eNodeB.nic.mac 	cqiDlSpmux4:lteAvg 	7.3
attr source  cqiDlSpmux4
attr title  "Average cqi Spmux band 4, lteAvg"
attr unit  cqi
scalar Tests.eNodeB.nic.mac 	cqiDlSpmux4:lteAvg 	14.980666666667
attr source  cqiDlSpmux4
attr title  "Average cqi Spmux band 4, lteAvg"
attr unit  cqi
scalar Tests.eNodeB.nic.mac 	cqiDlSpmux4:lteAvg 	10.167333333333
attr source  cqiDlSpmux4
attr title  "Average cqi Spmux band 4, lteAvg"
attr unit  cqi
scalar Tests.eNodeB.nic.mac 	cqiDlSpmux4:lteAvg 	14.912666666667
attr source  cqiDlSpmux4
attr title  "Average cqi Spmux band 4, lteAvg"
attr unit  cqi
scalar Tests.eNodeB.nic.mac 	cqiDlSpmux4:lteAvg 	7.9223333333333
attr source  cqiDlSpmux4
attr title  "Average cqi Spmux band 4, lteAvg"
attr unit  cqi
scalar Tests.eNodeB.nic.mac 	cqiDlSpmux4:lteAvg 	9.1083333333333
attr source  cqiDlSpmux4
attr title  "Average cqi Spmux band 4, lteAvg"
attr unit  cqi
scalar Tests.eNodeB.nic.mac 	cqiDlSpmux4:lteAvg 	10.697
attr source  cqiDlSpmux4
attr title  "Average cqi Spmux band 4, lteAvg"
attr unit  cqi
scalar Tests.eNodeB.nic.mac 	cqiDlSpmux4:lteAvg 	10.528
attr source  cqiDlSpmux4
attr title  "Average cqi Spmux band 4, lteAvg"
attr unit  cqi
scalar Tests.eNodeB.nic.mac 	cqiDlSpmux4:lteAvg 	14.984333333333
attr source  cqiDlSpmux4
attr title  "Average cqi Spmux band 4, lteAvg"
attr unit  cqi
scalar Tests.eNodeB.nic.mac 	cqiDlSpmux4:lteAvg 	14.480333333333
attr source  cqiDlSpmux4
attr title  "Average cqi Spmux band 4, lteAvg"
attr unit  cqi
scalar Tests.eNodeB.nic.mac 	cqiDlSpmux4:lteAvg 	12.553
attr source  cqiDlSpmux4
attr title  "Average cqi Spmux band 4, lteAvg"
attr unit  cqi
scalar Tests.eNodeB.nic.mac 	cqiDlSpmux4:lteAvg 	9.4016666666667
attr source  cqiDlSpmux4
attr title  "Average cqi Spmux band 4, lteAvg"
attr unit  cqi
scalar Tests.eNodeB.nic.mac 	cqiDlSpmux4:lteAvg 	13.991
attr source  cqiDlSpmux4
attr title  "Average cqi Spmux band 4, lteAvg"
attr unit  cqi
scalar Tests.eNodeB.nic.mac 	cqiDlSpmux4:lteAvg 	13.292666666667
attr source  cqiDlSpmux4
attr title  "Average cqi Spmux band 4, lteAvg"
attr unit  cqi
scalar Tests.eNodeB.nic.mac 	cqiDlSpmux4:lteAvg 	5.6643333333333
attr source  cqiDlSpmux4
attr title  "Average cqi Spmux band 4, lteAvg"
attr unit  cqi
scalar Tests.eNodeB.nic.mac 	cqiDlSpmux4:lteAvg 	8.468
attr source  cqiDlSpmux4
attr title  "Average cqi Spmux band 4, lteAvg"
attr unit  cqi
scalar Tests.eNodeB.nic.mac 	cqiDlSpmux4:lteAvg 	12.124333333333
attr source  cqiDlSpmux4
attr title  "Average cqi Spmux band 4, lteAvg"
attr unit  cqi
scalar Tests.eNodeB.nic.mac 	cqiDlSpmux4:lteAvg 	14.824333333333
attr source  cqiDlSpmux4
attr title  "Average cqi Spmux band 4, lteAvg"
attr unit  cqi
scalar Tests.eNodeB.nic.mac 	cqiDlSpmux4:lteAvg 	7.844
attr source  cqiDlSpmux4
attr title  "Average cqi Spmux band 4, lteAvg"
attr unit  cqi
scalar Tests.eNodeB.nic.mac 	cqiDlSpmux4:lteAvg 	7.3436666666667
attr source  cqiDlSpmux4
attr title  "Average cqi Spmux band 4, lteAvg"
attr unit  cqi
scalar Tests.eNodeB.nic.mac 	cqiDlSpmux4:lteAvg 	10.155
attr source  cqiDlSpmux4
attr title  "Average cqi Spmux band 4, lteAvg"
attr unit  cqi
scalar Tests.eNodeB.nic.mac 	cqiDlSpmux4:lteAvg 	12.337666666667
attr source  cqiDlSpmux4
attr title  "Average cqi Spmux band 4, lteAvg"
attr unit  cqi
scalar Tests.eNodeB.nic.mac 	cqiDlSpmux4:lteAvg 	10.148
attr source  cqiDlSpmux4
attr title  "Average cqi Spmux band 4, lteAvg"
attr unit  cqi
scalar Tests.eNodeB.nic.mac 	cqiDlSpmux4:lteAvg 	10.553
attr source  cqiDlSpmux4
attr title  "Average cqi Spmux band 4, lteAvg"
attr unit  cqi
scalar Tests.eNodeB.nic.mac 	cqiDlSpmux4:lteAvg 	11.004333333333
attr source  cqiDlSpmux4
attr title  "Average cqi Spmux band 4, lteAvg"
attr unit  cqi
scalar Tests.eNodeB.nic.mac 	cqiDlSpmux4:lteAvg 	14.987
attr source  cqiDlSpmux4
attr title  "Average cqi Spmux band 4, lteAvg"
attr unit  cqi
scalar Tests.eNodeB.nic.mac 	cqiDlSpmux4:lteAvg 	8.9933333333333
attr source  cqiDlSpmux4
attr title  "Average cqi Spmux band 4, lteAvg"
attr unit  cqi
scalar Tests.eNodeB.nic.mac 	cqiDlSpmux4:lteAvg 	11.84
attr source  cqiDlSpmux4
attr title  "Average cqi Spmux band 4, lteAvg"
attr unit  cqi
scalar Tests.eNodeB.nic.mac 	cqiDlSpmux4:lteAvg 	8.2243333333333
attr source  cqiDlSpmux4
attr title  "Average cqi Spmux band 4, lteAvg"
attr unit  cqi
scalar Tests.eNodeB.nic.mac 	cqiDlSpmux3:lteAvg 	8.2966666666667
attr source  cqiDlSpmux3
attr title  "Average cqi Spmux band 3, lteAvg"
attr unit  cqi
scalar Tests.eNodeB.nic.mac 	cqiDlSpmux3:lteAvg 	10.906
attr source  cqiDlSpmux3
attr title  "Average cqi Spmux band 3, lteAvg"
attr unit  cqi
scalar Tests.eNodeB.nic.mac 	cqiDlSpmux3:lteAvg 	11.055
attr source  cqiDlSpmux3
attr title  "Average cqi Spmux band 3, lteAvg"
attr unit  cqi
scalar Tests.eNodeB.nic.mac 	cqiDlSpmux3:lteAvg 	12.282333333333
attr source  cqiDlSpmux3
attr title  "Average cqi Spmux band 3, lteAvg"
attr unit  cqi
scalar Tests.eNodeB.nic.mac 	cqiDlSpmux3:lteAvg 	14.832
attr source  cqiDlSpmux3
attr title  "Average cqi Spmux band 3, lteAvg"
attr unit  cqi
scalar Tests.eNodeB.nic.mac 	cqiDlSpmux3:lteAvg 	9.975
attr source  cqiDlSpmux3
attr title  "Average cqi Spmux band 3, lteAvg"
attr unit  cqi
scalar Tests.eNodeB.nic.mac 	cqiDlSpmux3:lteAvg 	8.0353333333333
attr source  cqiDlSpmux3
attr title  "Average cqi Spmux band 3, lteAvg"
attr unit  cqi
scalar Tests.eNodeB.nic.mac 	cqiDlSpmux3:lteAvg 	14.149
attr source  cqiDlSpmux3
attr title  "Average cqi Spmux band 3, lteAvg"
attr unit  cqi
scalar Tests.eNodeB.nic.mac 	cqiDlSpmux3:lteAvg 	8.319
attr source  cqiDlSpmux3
attr title  "Average cqi Spmux band 3, lteAvg"
attr unit  cqi
scalar Tests.eNodeB.nic.mac 	cqiDlSpmux3:lteAvg 	14.99
attr source  cqiDlSpmux3
attr title  "Average cqi Spmux band 3, lteAvg"
attr unit  cqi
scalar Tests.eNodeB.nic.mac 	cqiDlSpmux3:lteAvg 	14.98
attr source  cqiDlSpmux3
attr title  "Average cqi Spmux band 3, lteAvg"
attr unit  cqi
scalar Tests.eNodeB.nic.mac 	cqiDlSpmux3:lteAvg 	8.938
attr source  cqiDlSpmux3
attr title  "Average cqi Spmux band 3, lteAvg"
attr unit  cqi
scalar Tests.eNodeB.nic.mac 	cqiDlSpmux3:lteAvg 	9.4016666666667
attr source  cqiDlSpmux3
attr title  "Average cqi Spmux band 3, lteAvg"
attr unit  cqi
scalar Tests.eNodeB.nic.mac 	cqiDlSpmux3:lteAvg 	13.999666666667
attr source  cqiDlSpmux3
attr title  "Average cqi Spmux band 3, lteAvg"
attr unit  cqi
scalar Tests.eNodeB.nic.mac 	cqiDlSpmux3:lteAvg 	5.7663333333333
attr source  cqiDlSpmux3
attr title  "Average cqi Spmux band 3, lteAvg"
attr unit  cqi
scalar Tests.eNodeB.nic.mac 	cqiDlSpmux3:lteAvg 	2.9823333333333
attr source  cqiDlSpmux3
attr title  "Average cqi Spmux band 3, lteAvg"
attr unit  cqi
scalar Tests.eNodeB.nic.mac 	cqiDlSpmux3:lteAvg 	9.8223333333333
attr source  cqiDlSpmux3
attr title  "Average cqi Spmux band 3, lteAvg"
attr unit  cqi
scalar Tests.eNodeB.nic.mac 	cqiDlSpmux3:lteAvg 	13.918666666667
attr source  cqiDlSpmux3
attr title  "Average cqi Spmux band 3, lteAvg"
attr unit  cqi
scalar Tests.eNodeB.nic.mac 	cqiDlSpmux3:lteAvg 	6.3423333333333
attr source  cqiDlSpmux3
attr title  "Average cqi Spmux band 3, lteAvg"
attr unit  cqi
scalar Tests.eNodeB.nic.mac 	cqiDlSpmux3:lteAvg 	12.890666666667
attr source  cqiDlSpmux3
attr title  "Average cqi Spmux band 3, lteAvg"
attr unit  cqi
scalar Tests.eNodeB.nic.mac 	cqiDlSpmux3:lteAvg 	8.2276666666667
attr source  cqiDlSpmux3
attr title  "Average cqi Spmux band 3, lteAvg"
attr unit  cqi
scalar Tests.eNodeB.nic.mac 	cqiDlSpmux3:lteAvg 	10.574666666667
attr source  cqiDlSpmux3
attr title  "Average cqi Spmux band 3, lteAvg"
attr unit  cqi
scalar Tests.eNodeB.nic.mac 	cqiDlSpmux3:lteAvg 	13.194
attr source  cqiDlSpmux3
attr title  "Average cqi Spmux band 3, lteAvg"
attr unit  cqi
scalar Tests.eNodeB.nic.mac 	cqiDlSpmux3:lteAvg 	5.736
attr source  cqiDlSpmux3
attr title  "Average cqi Spmux band 3, lteAvg"
attr unit  cqi
scalar Tests.eNodeB.nic.mac 	cqiDlSpmux3:lteAvg 	5.2053333333333
attr source  cqiDlSpmux3
attr title  "Average cqi Spmux band 3, lteAvg"
attr unit  cqi
scalar Tests.eNodeB.nic.mac 	cqiDlSpmux3:lteAvg 	10.514333333333
attr source  cqiDlSpmux3
attr title  "Average cqi Spmux band 3, lteAvg"
attr unit  cqi
scalar Tests.eNodeB.nic.mac 	cqiDlSpmux3:lteAvg 	14.994666666667
attr source  cqiDlSpmux3
attr title  "Average cqi Spmux band 3, lteAvg"
attr unit  cqi
scalar Tests.eNodeB.nic.mac 	cqiDlSpmux3:lteAvg 	2.1663333333333
attr source  cqiDlSpmux3
attr title  "Average cqi Spmux band 3, lteAvg"
attr unit  cqi
scalar Tests.eNodeB.nic.mac 	cqiDlSpmux3:lteAvg 	12.430333333333
attr source  cqiDlSpmux3
attr title  "Average cqi Spmux band 3, lteAvg"
attr unit  cqi
scalar Tests.eNodeB.nic.mac 	cqiDlSpmux3:lteAvg 	5.387
attr source  cqiDlSpmux3
attr title  "Average cqi Spmux band 3, lteAvg"
attr unit  cqi
scalar Tests.eNodeB.nic.mac 	cqiDlSpmux2:lteAvg 	12.410666666667
attr source  cqiDlSpmux2
attr title  "Average cqi Spmux band 2, lteAvg"
attr unit  cqi
scalar Tests.eNodeB.nic.mac 	cqiDlSpmux2:lteAvg 	8.3443333333333
attr source  cqiDlSpmux2
attr title  "Average cqi Spmux band 2, lteAvg"
attr unit  cqi
scalar Tests.eNodeB.nic.mac 	cqiDlSpmux2:lteAvg 	14.979
attr source  cqiDlSpmux2
attr title  "Average cqi Spmux band 2, lteAvg"
attr unit  cqi
scalar Tests.eNodeB.nic.mac 	cqiDlSpmux2:lteAvg 	11.111333333333
attr source  cqiDlSpmux2
attr title  "Average cqi Spmux band 2, lteAvg"
attr unit  cqi
scalar Tests.eNodeB.nic.mac 	cqiDlSpmux2:lteAvg 	14.319
attr source  cqiDlSpmux2
attr title  "Average cqi Spmux band 2, lteAvg"
attr unit  cqi
scalar Tests.eNodeB.nic.mac 	cqiDlSpmux2:lteAvg 	3.0453333333333
attr source  cqiDlSpmux2
attr title  "Average cqi Spmux band 2, lteAvg"
attr unit  cqi
scalar Tests.eNodeB.nic.mac 	cqiDlSpmux2:lteAvg 	10.363
attr source  cqiDlSpmux2
attr title  "Average cqi Spmux band 2, lteAvg"
attr unit  cqi
scalar Tests.eNodeB.nic.mac 	cqiDlSpmux2:lteAvg 	14.166
attr source  cqiDlSpmux2
attr title  "Average cqi Spmux band 2, lteAvg"
attr unit  cqi
scalar Tests.eNodeB.nic.mac 	cqiDlSpmux2:lteAvg 	12.874
attr source  cqiDlSpmux2
attr title  "Average cqi Spmux band 2, lteAvg"
attr unit  cqi
scalar Tests.eNodeB.nic.mac 	cqiDlSpmux2:lteAvg 	14.633333333333
attr source  cqiDlSpmux2
attr title  "Average cqi Spmux band 2, lteAvg"
attr unit  cqi
scalar Tests.eNodeB.nic.mac 	cqiDlSpmux2:lteAvg 	14.986666666667
attr source  cqiDlSpmux2
attr title  "Average cqi Spmux band 2, lteAvg"
attr unit  cqi
scalar Tests.eNodeB.nic.mac 	cqiDlSpmux2:lteAvg 	7.7366666666667
attr source  cqiDlSpmux2
attr title  "Average cqi Spmux band 2, lteAvg"
attr unit  cqi
scalar Tests.eNodeB.nic.mac 	cqiDlSpmux2:lteAvg 	9.828
attr source  cqiDlSpmux2
attr title  "Average cqi Spmux band 2, lteAvg"
attr unit  cqi
scalar Tests.eNodeB.nic.mac 	cqiDlSpmux2:lteAvg 	11.907333333333
attr source  cqiDlSpmux2
attr title  "Average cqi Spmux band 2, lteAvg"
attr unit  cqi
scalar Tests.eNodeB.nic.mac 	cqiDlSpmux2:lteAvg 	14.335333333333
attr source  cqiDlSpmux2
attr title  "Average cqi Spmux band 2, lteAvg"
attr unit  cqi
scalar Tests.eNodeB.nic.mac 	cqiDlSpmux2:lteAvg 	4.5226666666667
attr source  cqiDlSpmux2
attr title  "Average cqi Spmux band 2, lteAvg"
attr unit  cqi
scalar Tests.eNodeB.nic.mac 	cqiDlSpmux2:lteAvg 	8.4123333333333
attr source  cqiDlSpmux2
attr title  "Average cqi Spmux band 2, lteAvg"
attr unit  cqi
scalar Tests.eNodeB.nic.mac 	cqiDlSpmux2:lteAvg 	11.487
attr source  cqiDlSpmux2
attr title  "Average cqi Spmux band 2, lteAvg"
attr unit  cqi
scalar Tests.eNodeB.nic.mac 	cqiDlSpmux2:lteAvg 	14.889666666667
attr source  cqiDlSpmux2
attr title  "Average cqi Spmux band 2, lteAvg"
attr unit  cqi
scalar Tests.eNodeB.nic.mac 	cqiDlSpmux2:lteAvg 	12.206
attr source  cqiDlSpmux2
attr title  "Average cqi Spmux band 2, lteAvg"
attr unit  cqi
scalar Tests.eNodeB.nic.mac 	cqiDlSpmux2:lteAvg 	6.6693333333333
attr source  cqiDlSpmux2
attr title  "Average cqi Spmux band 2, lteAvg"
attr unit  cqi
scalar Tests.eNodeB.nic.mac 	cqiDlSpmux2:lteAvg 	12.148333333333
attr source  cqiDlSpmux2
attr title  "Average cqi Spmux band 2, lteAvg"
attr unit  cqi
scalar Tests.eNodeB.nic.mac 	cqiDlSpmux2:lteAvg 	13.844333333333
attr source  cqiDlSpmux2
attr title  "Average cqi Spmux band 2, lteAvg"
attr unit  cqi
scalar Tests.eNodeB.nic.mac 	cqiDlSpmux2:lteAvg 	7.274
attr source  cqiDlSpmux2
attr title  "Average cqi Spmux band 2, lteAvg"
attr unit  cqi
scalar Tests.eNodeB.nic.mac 	cqiDlSpmux2:lteAvg 	11.665666666667
attr source  cqiDlSpmux2
attr title  "Average cqi Spmux band 2, lteAvg"
attr unit  cqi
scalar Tests.eNodeB.nic.mac 	cqiDlSpmux2:lteAvg 	9.2603333333333
attr source  cqiDlSpmux2
attr title  "Average cqi Spmux band 2, lteAvg"
attr unit  cqi
scalar Tests.eNodeB.nic.mac 	cqiDlSpmux2:lteAvg 	14.994666666667
attr source  cqiDlSpmux2
attr title  "Average cqi Spmux band 2, lteAvg"
attr unit  cqi
scalar Tests.eNodeB.nic.mac 	cqiDlSpmux2:lteAvg 	6.8263333333333
attr source  cqiDlSpmux2
attr title  "Average cqi Spmux band 2, lteAvg"
attr unit  cqi
scalar Tests.eNodeB.nic.mac 	cqiDlSpmux2:lteAvg 	12.281666666667
attr source  cqiDlSpmux2
attr title  "Average cqi Spmux band 2, lteAvg"
attr unit  cqi
scalar Tests.eNodeB.nic.mac 	cqiDlSpmux2:lteAvg 	8.8266666666667
attr source  cqiDlSpmux2
attr title  "Average cqi Spmux band 2, lteAvg"
attr unit  cqi
scalar Tests.eNodeB.nic.mac 	cqiDlSpmux1:lteAvg 	14.966
attr source  cqiDlSpmux1
attr title  "Average cqi Spmux band 1, lteAvg"
attr unit  cqi
scalar Tests.eNodeB.nic.mac 	cqiDlSpmux1:lteAvg 	6.778
attr source  cqiDlSpmux1
attr title  "Average cqi Spmux band 1, lteAvg"
attr unit  cqi
scalar Tests.eNodeB.nic.mac 	cqiDlSpmux1:lteAvg 	14.982
attr source  cqiDlSpmux1
attr title  "Average cqi Spmux band 1, lteAvg"
attr unit  cqi
scalar Tests.eNodeB.nic.mac 	cqiDlSpmux1:lteAvg 	11.974666666667
attr source  cqiDlSpmux1
attr title  "Average cqi Spmux band 1, lteAvg"
attr unit  cqi
scalar Tests.eNodeB.nic.mac 	cqiDlSpmux1:lteAvg 	14.72
attr source  cqiDlSpmux1
attr title  "Average cqi Spmux band 1, lteAvg"
attr unit  cqi
scalar Tests.eNodeB.nic.mac 	cqiDlSpmux1:lteAvg 	12.732333333333
attr source  cqiDlSpmux1
attr title  "Average cqi Spmux band 1, lteAvg"
attr unit  cqi
scalar Tests.eNodeB.nic.mac 	cqiDlSpmux1:lteAvg 	9.932
attr source  cqiDlSpmux1
attr title  "Average cqi Spmux band 1, lteAvg"
attr unit  cqi
scalar Tests.eNodeB.nic.mac 	cqiDlSpmux1:lteAvg 	14.479666666667
attr source  cqiDlSpmux1
attr title  "Average cqi Spmux band 1, lteAvg"
attr unit  cqi
scalar Tests.eNodeB.nic.mac 	cqiDlSpmux1:lteAvg 	5.9886666666667
attr source  cqiDlSpmux1
attr title  "Average cqi Spmux band 1, lteAvg"
attr unit  cqi
scalar Tests.eNodeB.nic.mac 	cqiDlSpmux1:lteAvg 	14.988666666667
attr source  cqiDlSpmux1
attr title  "Average cqi Spmux band 1, lteAvg"
attr unit  cqi
scalar Tests.eNodeB.nic.mac 	cqiDlSpmux1:lteAvg 	14.164333333333
attr source  cqiDlSpmux1
attr title  "Average cqi Spmux band 1, lteAvg"
attr unit  cqi
scalar Tests.eNodeB.nic.mac 	cqiDlSpmux1:lteAvg 	10.598333333333
attr source  cqiDlSpmux1
attr title  "Average cqi Spmux band 1, lteAvg"
attr unit  cqi
scalar Tests.eNodeB.nic.mac 	cqiDlSpmux1:lteAvg 	7.2363333333333
attr source  cqiDlSpmux1
attr title  "Average cqi Spmux band 1, lteAvg"
attr unit  cqi
scalar Tests.eNodeB.nic.mac 	cqiDlSpmux1:lteAvg 	10.410333333333
attr source  cqiDlSpmux1
attr title  "Average cqi Spmux band 1, lteAvg"
attr unit  cqi
scalar Tests.eNodeB.nic.mac 	cqiDlSpmux1:lteAvg 	10.788
attr source  cqiDlSpmux1
attr title  "Average cqi Spmux band 1, lteAvg"
attr unit  cqi
scalar Tests.eNodeB.nic.mac 	cqiDlSpmux1:lteAvg 	6.4786666666667
attr source  cqiDlSpmux1
attr title  "Average cqi Spmux band 1, lteAvg"
attr unit  cqi
scalar Tests.eNodeB.nic.mac 	cqiDlSpmux1:lteAvg 	9.22
attr source  cqiDlSpmux1
attr title  "Average cqi Spmux band 1, lteAvg"
attr unit  cqi
scalar Tests.eNodeB.nic.mac 	cqiDlSpmux1:lteAvg 	12.256666666667
attr source  cqiDlSpmux1
attr title  "Average cqi Spmux band 1, lteAvg"
attr unit  cqi
scalar Tests.eNodeB.nic.mac 	cqiDlSpmux1:lteAvg 	14.869
attr source  cqiDlSpmux1
attr title  "Average cqi Spmux band 1, lteAvg"
attr unit  cqi
scalar Tests.eNodeB.nic.mac 	cqiDlSpmux1:lteAvg 	11.947333333333
attr source  cqiDlSpmux1
attr title  "Average cqi Spmux band 1, lteAvg"
attr unit  cqi
scalar Tests.eNodeB.nic.mac 	cqiDlSpmux1:lteAvg 	10.226666666667
attr source  cqiDlSpmux1
attr title  "Average cqi Spmux band 1, lteAvg"
attr unit  cqi
scalar Tests.eNodeB.nic.mac 	cqiDlSpmux1:lteAvg 	10.837666666667
attr source  cqiDlSpmux1
attr title  "Average cqi Spmux band 1, lteAvg"
attr unit  cqi
scalar Tests.eNodeB.nic.mac 	cqiDlSpmux1:lteAvg 	12.346
attr source  cqiDlSpmux1
attr title  "Average cqi Spmux band 1, lteAvg"
attr unit  cqi
scalar Tests.eNodeB.nic.mac 	cqiDlSpmux1:lteAvg 	7.8413333333333
attr source  cqiDlSpmux1
attr title  "Average cqi Spmux band 1, lteAvg"
attr unit  cqi
scalar Tests.eNodeB.nic.mac 	cqiDlSpmux1:lteAvg 	5.9773333333333
attr source  cqiDlSpmux1
attr title  "Average cqi Spmux band 1, lteAvg"
attr unit  cqi
scalar Tests.eNodeB.nic.mac 	cqiDlSpmux1:lteAvg 	6.7186666666667
attr source  cqiDlSpmux1
attr title  "Average cqi Spmux band 1, lteAvg"
attr unit  cqi
scalar Tests.eNodeB.nic.mac 	cqiDlSpmux1:lteAvg 	14.994
attr source  cqiDlSpmux1
attr title  "Average cqi Spmux band 1, lteAvg"
attr unit  cqi
scalar Tests.eNodeB.nic.mac 	cqiDlSpmux1:lteAvg 	7.244
attr source  cqiDlSpmux1
attr title  "Average cqi Spmux band 1, lteAvg"
attr unit  cqi
scalar Tests.eNodeB.nic.mac 	cqiDlSpmux1:lteAvg 	14.926
attr source  cqiDlSpmux1
attr title  "Average cqi Spmux band 1, lteAvg"
attr unit  cqi
scalar Tests.eNodeB.nic.mac 	cqiDlSpmux1:lteAvg 	8.2793333333333
attr source  cqiDlSpmux1
attr title  "Average cqi Spmux band 1, lteAvg"
attr unit  cqi
scalar Tests.eNodeB.nic.mac 	cqiDlSpmux0:lteAvg 	14.958666666667
attr source  cqiDlSpmux0
attr title  "Average cqi Spmux band 0, lteAvg"
attr unit  cqi
scalar Tests.eNodeB.nic.mac 	cqiDlSpmux0:lteAvg 	8.7943333333333
[...]
attr title  "TBS index, mean"
attr unit  ""
scalar Tests.ue[27].nic.mac 	harqErrorRate_4th_Dl:mean 	-nan
attr source  harqErrorRate_4th_Dl
attr title  "Harq Error Rate Dl, mean"
attr unit  ""
scalar Tests.ue[27].nic.mac 	harqErrorRate_4th_Ul:mean 	0
attr source  harqErrorRate_4th_Ul
attr title  "Harq Error Rate Dl, mean"
attr unit  ""
scalar Tests.ue[27].nic.mac 	harqErrorRate_3rd_Dl:mean 	-nan
attr source  harqErrorRate_3rd_Dl
attr title  "Harq Error Rate Dl, mean"
attr unit  ""
scalar Tests.ue[27].nic.mac 	harqErrorRate_3rd_Ul:mean 	0.057142857142857
attr source  harqErrorRate_3rd_Ul
attr title  "Harq Error Rate Dl, mean"
attr unit  ""
scalar Tests.ue[27].nic.mac 	harqErrorRate_2nd_Dl:mean 	-nan
attr source  harqErrorRate_2nd_Dl
attr title  "Harq Error Rate Dl, mean"
attr unit  ""
scalar Tests.ue[27].nic.mac 	harqErrorRate_2nd_Ul:mean 	0.081775700934579
attr source  harqErrorRate_2nd_Ul
attr title  "Harq Error Rate Dl, mean"
attr unit  ""
scalar Tests.ue[27].nic.mac 	harqErrorRate_1st_Dl:mean 	-nan
attr source  harqErrorRate_1st_Dl
attr title  "Harq Error Rate Dl, mean"
attr unit  ""
scalar Tests.ue[27].nic.mac 	harqErrorRate_1st_Ul:mean 	0.13643608543194
attr source  harqErrorRate_1st_Ul
attr title  "Harq Error Rate Dl, mean"
attr unit  ""
scalar Tests.ue[27].nic.mac 	harqErrorRateDl:mean 	-nan
attr source  harqErrorRateDl
attr title  "Harq Error Rate Dl, mean"
attr unit  ""
scalar Tests.ue[27].nic.mac 	harqErrorRateUl:mean 	0.12909494725153
attr source  harqErrorRateUl
attr title  "Harq Error Rate Dl, mean"
attr unit  ""
scalar Tests.ue[27].nic.mac 	macPacketLossDl:mean 	-nan
attr source  macPacketLossDl
attr title  "Mac Packet Loss, mean"
attr unit  ""
scalar Tests.ue[27].nic.mac 	macPacketLossUl:mean 	0
attr source  macPacketLossUl
attr title  "Mac Packet Loss, mean"
attr unit  ""
scalar Tests.ue[27].nic.mac 	macCellPacketLossUl:mean 	-nan
attr source  macCellPacketLossUl
attr title  "Mac Cell Packet Loss, mean"
attr unit  ""
scalar Tests.ue[27].nic.mac 	macCellPacketLossDl:mean 	-nan
attr source  macCellPacketLossDl
attr title  "Mac Cell Packet Loss, mean"
attr unit  ""
scalar Tests.ue[27].nic.mac 	sentPacketToLowerLayer:count 	7118
attr interpolationmode  none
attr source  sentPacketToLowerLayer
scalar Tests.ue[27].nic.mac 	sentPacketToLowerLayer:sum(packetBytes) 	0
attr interpolationmode  none
attr source  sentPacketToLowerLayer
scalar Tests.ue[27].nic.mac 	sentPacketToUpperLayer:count 	0
attr interpolationmode  none
attr source  sentPacketToUpperLayer
scalar Tests.ue[27].nic.mac 	sentPacketToUpperLayer:sum(packetBytes) 	0
attr interpolationmode  none
attr source  sentPacketToUpperLayer
scalar Tests.ue[27].nic.mac 	receivedPacketFromLowerLayer:count 	10720
attr interpolationmode  none
attr source  receivedPacketFromLowerLayer
scalar Tests.ue[27].nic.mac 	receivedPacketFromLowerLayer:sum(packetBytes) 	0
attr interpolationmode  none
attr source  receivedPacketFromLowerLayer
scalar Tests.ue[27].nic.mac 	receivedPacketFromUpperLayer:count 	723
attr interpolationmode  none
attr source  receivedPacketFromUpperLayer
scalar Tests.ue[27].nic.mac 	receivedPacketFromUpperLayer:sum(packetBytes) 	17111
attr interpolationmode  none
attr source  receivedPacketFromUpperLayer
scalar Tests.ue[27].udpApp[0] 	voIPGeneratedThroughtput:timeavg 	-nan
attr source  voIPGeneratedThroughtput
attr title  "Throughput generated by the application, timeavg"
attr unit  Bps
scalar Tests.ue[27].udpApp[0] 	voIPGeneratedThroughtput:mean 	-nan
attr source  voIPGeneratedThroughtput
attr title  "Throughput generated by the application, mean"
attr unit  Bps
scalar Tests.ue[27].udpApp[0] 	voIPGeneratedThroughtput:last(sumPerDuration) 	-nan
attr source  voIPGeneratedThroughtput
attr title  "Throughput generated by the application, last(sumPerDuration)"
attr unit  Bps
scalar Tests.ue[27].udpApp[0] 	voIPGeneratedThroughtput:sum 	0
attr source  voIPGeneratedThroughtput
attr title  "Throughput generated by the application, sum"
attr unit  Bps
scalar Tests.ue[27].udp 	droppedPkBadChecksum:count 	0
attr interpolationmode  none
attr title  "packets dropped (checksum error), count"
scalar Tests.ue[27].udp 	droppedPkWrongPort:count 	0
attr interpolationmode  none
attr title  "packets dropped (wrong port), count"
scalar Tests.ue[27].udp 	passedUpPk:count 	0
attr interpolationmode  none
attr title  "packets passed up, count"
scalar Tests.ue[27].udp 	rcvdPk:count 	0
attr interpolationmode  none
attr source  rcvdPk
attr title  "packets received, count"
scalar Tests.ue[27].udp 	rcvdPk:sum(packetBytes) 	0
attr interpolationmode  none
attr source  rcvdPk
attr title  "packets received, sum(packetBytes)"
scalar Tests.ue[27].udp 	sentPk:count 	241
attr interpolationmode  none
attr source  sentPk
attr title  "packets sent, count"
scalar Tests.ue[27].udp 	sentPk:sum(packetBytes) 	11568
attr interpolationmode  none
attr source  sentPk
attr title  "packets sent, sum(packetBytes)"
scalar Tests.ue[28].networkLayerWIFI.arp 	failedARPResolution:count 	0
attr title  "ARP failed resolutions, count"
scalar Tests.ue[28].networkLayerWIFI.arp 	completedARPResolution:count 	0
attr title  "ARP completed resolutions, count"
scalar Tests.ue[28].networkLayerWIFI.arp 	initiatedARPResolution:count 	0
attr title  "ARP initiated resolutions, count"
scalar Tests.ue[28].networkLayerWIFI.arp 	sentReply:count 	0
attr title  "ARP replies sent, count"
scalar Tests.ue[28].networkLayerWIFI.arp 	sentReq:count 	0
attr title  "ARP request sent, count"
scalar Tests.ue[28].networkLayerLTE.arp 	failedARPResolution:count 	0
attr title  "ARP failed resolutions, count"
scalar Tests.ue[28].networkLayerLTE.arp 	completedARPResolution:count 	0
attr title  "ARP completed resolutions, count"
scalar Tests.ue[28].networkLayerLTE.arp 	initiatedARPResolution:count 	0
attr title  "ARP initiated resolutions, count"
scalar Tests.ue[28].networkLayerLTE.arp 	sentReply:count 	0
attr title  "ARP replies sent, count"
scalar Tests.ue[28].networkLayerLTE.arp 	sentReq:count 	0
attr title  "ARP request sent, count"
scalar Tests.ue[28].nic.pdcpRrc 	sentPacketToLowerLayer:count 	746
attr interpolationmode  none
attr source  sentPacketToLowerLayer
scalar Tests.ue[28].nic.pdcpRrc 	sentPacketToLowerLayer:sum(packetBytes) 	51474
attr interpolationmode  none
attr source  sentPacketToLowerLayer
scalar Tests.ue[28].nic.pdcpRrc 	sentPacketToUpperLayer:count 	0
attr interpolationmode  none
attr source  sentPacketToUpperLayer
scalar Tests.ue[28].nic.pdcpRrc 	sentPacketToUpperLayer:sum(packetBytes) 	0
attr interpolationmode  none
attr source  sentPacketToUpperLayer
scalar Tests.ue[28].nic.pdcpRrc 	receivedPacketFromLowerLayer:count 	0
attr interpolationmode  none
attr source  receivedPacketFromLowerLayer
scalar Tests.ue[28].nic.pdcpRrc 	receivedPacketFromLowerLayer:sum(packetBytes) 	0
attr interpolationmode  none
attr source  receivedPacketFromLowerLayer
scalar Tests.ue[28].nic.pdcpRrc 	receivedPacketFromUpperLayer:count 	746
attr interpolationmode  none
attr source  receivedPacketFromUpperLayer
scalar Tests.ue[28].nic.pdcpRrc 	receivedPacketFromUpperLayer:sum(packetBytes) 	50728
attr interpolationmode  none
attr source  receivedPacketFromUpperLayer
scalar Tests.ue[28].nic.rlc.um 	rlcPduPacketLossUl:lteAvg 	0
attr source  rlcPduPacketLossUl
attr title  "rlc Packet Loss, lteAvg"
attr unit  ""
scalar Tests.ue[28].nic.rlc.um 	rlcPacketLossUl:lteAvg 	1
attr source  rlcPacketLossUl
attr title  "rlc Packet Loss, lteAvg"
attr unit  ""
scalar Tests.ue[28].nic.rlc.um 	rlcPduThroughputUl:lteRate 	21.513087128003
attr source  rlcPduThroughputUl
attr title  "Throughput at the rlc layer UL, lteRate"
attr unit  Bps
scalar Tests.ue[28].nic.rlc.um 	rlcPduDelayUl:lteAvg 	17.2115
attr source  rlcPduDelayUl
attr title  "Delay at the rlc layer UL, lteAvg"
attr unit  s
scalar Tests.ue[28].nic.mac 	measuredItbs:mean 	-nan
attr source  measuredItbs
attr title  "TBS index, mean"
attr unit  ""
scalar Tests.ue[28].nic.mac 	harqErrorRate_4th_Dl:mean 	-nan
attr source  harqErrorRate_4th_Dl
attr title  "Harq Error Rate Dl, mean"
attr unit  ""
scalar Tests.ue[28].nic.mac 	harqErrorRate_4th_Ul:mean 	-nan
attr source  harqErrorRate_4th_Ul
attr title  "Harq Error Rate Dl, mean"
attr unit  ""
scalar Tests.ue[28].nic.mac 	harqErrorRate_3rd_Dl:mean 	-nan
attr source  harqErrorRate_3rd_Dl
attr title  "Harq Error Rate Dl, mean"
attr unit  ""
scalar Tests.ue[28].nic.mac 	harqErrorRate_3rd_Ul:mean 	0
attr source  harqErrorRate_3rd_Ul
attr title  "Harq Error Rate Dl, mean"
attr unit  ""
scalar Tests.ue[28].nic.mac 	harqErrorRate_2nd_Dl:mean 	-nan
attr source  harqErrorRate_2nd_Dl
attr title  "Harq Error Rate Dl, mean"
attr unit  ""
scalar Tests.ue[28].nic.mac 	harqErrorRate_2nd_Ul:mean 	0.033057851239669
attr source  harqErrorRate_2nd_Ul
attr title  "Harq Error Rate Dl, mean"
attr unit  ""
scalar Tests.ue[28].nic.mac 	harqErrorRate_1st_Dl:mean 	-nan
attr source  harqErrorRate_1st_Dl
attr title  "Harq Error Rate Dl, mean"
attr unit  ""
scalar Tests.ue[28].nic.mac 	harqErrorRate_1st_Ul:mean 	0.039070067807556
attr source  harqErrorRate_1st_Ul
attr title  "Harq Error Rate Dl, mean"
attr unit  ""
scalar Tests.ue[28].nic.mac 	harqErrorRateDl:mean 	-nan
attr source  harqErrorRateDl
attr title  "Harq Error Rate Dl, mean"
attr unit  ""
scalar Tests.ue[28].nic.mac 	harqErrorRateUl:mean 	0.038795779019243
attr source  harqErrorRateUl
attr title  "Harq Error Rate Dl, mean"
attr unit  ""
scalar Tests.ue[28].nic.mac 	macPacketLossDl:mean 	-nan
attr source  macPacketLossDl
attr title  "Mac Packet Loss, mean"
attr unit  ""
scalar Tests.ue[28].nic.mac 	macPacketLossUl:mean 	0
attr source  macPacketLossUl
attr title  "Mac Packet Loss, mean"
attr unit  ""
scalar Tests.ue[28].nic.mac 	macCellPacketLossUl:mean 	-nan
attr source  macCellPacketLossUl
attr title  "Mac Cell Packet Loss, mean"
attr unit  ""
scalar Tests.ue[28].nic.mac 	macCellPacketLossDl:mean 	-nan
attr source  macCellPacketLossDl
attr title  "Mac Cell Packet Loss, mean"
attr unit  ""
scalar Tests.ue[28].nic.mac 	sentPacketToLowerLayer:count 	6798
attr interpolationmode  none
attr source  sentPacketToLowerLayer
scalar Tests.ue[28].nic.mac 	sentPacketToLowerLayer:sum(packetBytes) 	0
attr interpolationmode  none
attr source  sentPacketToLowerLayer
scalar Tests.ue[28].nic.mac 	sentPacketToUpperLayer:count 	0
attr interpolationmode  none
attr source  sentPacketToUpperLayer
scalar Tests.ue[28].nic.mac 	sentPacketToUpperLayer:sum(packetBytes) 	0
attr interpolationmode  none
attr source  sentPacketToUpperLayer
scalar Tests.ue[28].nic.mac 	receivedPacketFromLowerLayer:count 	10020
attr interpolationmode  none
attr source  receivedPacketFromLowerLayer
scalar Tests.ue[28].nic.mac 	receivedPacketFromLowerLayer:sum(packetBytes) 	0
attr interpolationmode  none
attr source  receivedPacketFromLowerLayer
scalar Tests.ue[28].nic.mac 	receivedPacketFromUpperLayer:count 	2238
attr interpolationmode  none
attr source  receivedPacketFromUpperLayer
scalar Tests.ue[28].nic.mac 	receivedPacketFromUpperLayer:sum(packetBytes) 	52966
attr interpolationmode  none
attr source  receivedPacketFromUpperLayer
scalar Tests.ue[28].udpApp[0] 	voIPGeneratedThroughtput:timeavg 	-nan
attr source  voIPGeneratedThroughtput
attr title  "Throughput generated by the application, timeavg"
attr unit  Bps
scalar Tests.ue[28].udpApp[0] 	voIPGeneratedThroughtput:mean 	-nan
attr source  voIPGeneratedThroughtput
attr title  "Throughput generated by the application, mean"
attr unit  Bps
scalar Tests.ue[28].udpApp[0] 	voIPGeneratedThroughtput:last(sumPerDuration) 	-nan
attr source  voIPGeneratedThroughtput
attr title  "Throughput generated by the application, last(sumPerDuration)"
attr unit  Bps
scalar Tests.ue[28].udpApp[0] 	voIPGeneratedThroughtput:sum 	0
attr source  voIPGeneratedThroughtput
attr title  "Throughput generated by the application, sum"
attr unit  Bps
scalar Tests.ue[28].udp 	droppedPkBadChecksum:count 	0
attr interpolationmode  none
attr title  "packets dropped (checksum error), count"
scalar Tests.ue[28].udp 	droppedPkWrongPort:count 	0
attr interpolationmode  none
attr title  "packets dropped (wrong port), count"
scalar Tests.ue[28].udp 	passedUpPk:count 	0
attr interpolationmode  none
attr title  "packets passed up, count"
scalar Tests.ue[28].udp 	rcvdPk:count 	0
attr interpolationmode  none
attr source  rcvdPk
attr title  "packets received, count"
scalar Tests.ue[28].udp 	rcvdPk:sum(packetBytes) 	0
attr interpolationmode  none
attr source  rcvdPk
attr title  "packets received, sum(packetBytes)"
scalar Tests.ue[28].udp 	sentPk:count 	746
attr interpolationmode  none
attr source  sentPk
attr title  "packets sent, count"
scalar Tests.ue[28].udp 	sentPk:sum(packetBytes) 	35808
attr interpolationmode  none
attr source  sentPk
attr title  "packets sent, sum(packetBytes)"
scalar Tests.ue[29].networkLayerWIFI.arp 	failedARPResolution:count 	0
attr title  "ARP failed resolutions, count"
scalar Tests.ue[29].networkLayerWIFI.arp 	completedARPResolution:count 	0
attr title  "ARP completed resolutions, count"
scalar Tests.ue[29].networkLayerWIFI.arp 	initiatedARPResolution:count 	0
attr title  "ARP initiated resolutions, count"
scalar Tests.ue[29].networkLayerWIFI.arp 	sentReply:count 	0
attr title  "ARP replies sent, count"
scalar Tests.ue[29].networkLayerWIFI.arp 	sentReq:count 	0
attr title  "ARP request sent, count"
scalar Tests.ue[29].networkLayerLTE.arp 	failedARPResolution:count 	0
attr title  "ARP failed resolutions, count"
scalar Tests.ue[29].networkLayerLTE.arp 	completedARPResolution:count 	0
attr title  "ARP completed resolutions, count"
scalar Tests.ue[29].networkLayerLTE.arp 	initiatedARPResolution:count 	0
attr title  "ARP initiated resolutions, count"
scalar Tests.ue[29].networkLayerLTE.arp 	sentReply:count 	0
attr title  "ARP replies sent, count"
scalar Tests.ue[29].networkLayerLTE.arp 	sentReq:count 	0
attr title  "ARP request sent, count"
scalar Tests.ue[29].nic.pdcpRrc 	sentPacketToLowerLayer:count 	669
attr interpolationmode  none
attr source  sentPacketToLowerLayer
scalar Tests.ue[29].nic.pdcpRrc 	sentPacketToLowerLayer:sum(packetBytes) 	46161
attr interpolationmode  none
attr source  sentPacketToLowerLayer
scalar Tests.ue[29].nic.pdcpRrc 	sentPacketToUpperLayer:count 	0
attr interpolationmode  none
attr source  sentPacketToUpperLayer
scalar Tests.ue[29].nic.pdcpRrc 	sentPacketToUpperLayer:sum(packetBytes) 	0
attr interpolationmode  none
attr source  sentPacketToUpperLayer
scalar Tests.ue[29].nic.pdcpRrc 	receivedPacketFromLowerLayer:count 	0
attr interpolationmode  none
attr source  receivedPacketFromLowerLayer
scalar Tests.ue[29].nic.pdcpRrc 	receivedPacketFromLowerLayer:sum(packetBytes) 	0
attr interpolationmode  none
attr source  receivedPacketFromLowerLayer
scalar Tests.ue[29].nic.pdcpRrc 	receivedPacketFromUpperLayer:count 	669
attr interpolationmode  none
attr source  receivedPacketFromUpperLayer
scalar Tests.ue[29].nic.pdcpRrc 	receivedPacketFromUpperLayer:sum(packetBytes) 	45492
attr interpolationmode  none
attr source  receivedPacketFromUpperLayer
scalar Tests.ue[29].nic.mac 	measuredItbs:mean 	-nan
attr source  measuredItbs
attr title  "TBS index, mean"
attr unit  ""
scalar Tests.ue[29].nic.mac 	harqErrorRate_4th_Dl:mean 	-nan
attr source  harqErrorRate_4th_Dl
attr title  "Harq Error Rate Dl, mean"
attr unit  ""
scalar Tests.ue[29].nic.mac 	harqErrorRate_4th_Ul:mean 	-nan
attr source  harqErrorRate_4th_Ul
attr title  "Harq Error Rate Dl, mean"
attr unit  ""
scalar Tests.ue[29].nic.mac 	harqErrorRate_3rd_Dl:mean 	-nan
attr source  harqErrorRate_3rd_Dl
attr title  "Harq Error Rate Dl, mean"
attr unit  ""
scalar Tests.ue[29].nic.mac 	harqErrorRate_3rd_Ul:mean 	-nan
attr source  harqErrorRate_3rd_Ul
attr title  "Harq Error Rate Dl, mean"
attr unit  ""
scalar Tests.ue[29].nic.mac 	harqErrorRate_2nd_Dl:mean 	-nan
attr source  harqErrorRate_2nd_Dl
attr title  "Harq Error Rate Dl, mean"
attr unit  ""
scalar Tests.ue[29].nic.mac 	harqErrorRate_2nd_Ul:mean 	0
attr source  harqErrorRate_2nd_Ul
attr title  "Harq Error Rate Dl, mean"
attr unit  ""
scalar Tests.ue[29].nic.mac 	harqErrorRate_1st_Dl:mean 	-nan
attr source  harqErrorRate_1st_Dl
attr title  "Harq Error Rate Dl, mean"
attr unit  ""
scalar Tests.ue[29].nic.mac 	harqErrorRate_1st_Ul:mean 	0.0091743119266055
attr source  harqErrorRate_1st_Ul
attr title  "Harq Error Rate Dl, mean"
attr unit  ""
scalar Tests.ue[29].nic.mac 	harqErrorRateDl:mean 	-nan
attr source  harqErrorRateDl
attr title  "Harq Error Rate Dl, mean"
attr unit  ""
scalar Tests.ue[29].nic.mac 	harqErrorRateUl:mean 	0.0090909090909091
attr source  harqErrorRateUl
attr title  "Harq Error Rate Dl, mean"
attr unit  ""
scalar Tests.ue[29].nic.mac 	macPacketLossDl:mean 	-nan
attr source  macPacketLossDl
attr title  "Mac Packet Loss, mean"
attr unit  ""
scalar Tests.ue[29].nic.mac 	macPacketLossUl:mean 	0
attr source  macPacketLossUl
attr title  "Mac Packet Loss, mean"
attr unit  ""
scalar Tests.ue[29].nic.mac 	macCellPacketLossUl:mean 	-nan
attr source  macCellPacketLossUl
attr title  "Mac Cell Packet Loss, mean"
attr unit  ""
scalar Tests.ue[29].nic.mac 	macCellPacketLossDl:mean 	-nan
attr source  macCellPacketLossDl
attr title  "Mac Cell Packet Loss, mean"
attr unit  ""
scalar Tests.ue[29].nic.mac 	sentPacketToLowerLayer:count 	7116
attr interpolationmode  none
attr source  sentPacketToLowerLayer
scalar Tests.ue[29].nic.mac 	sentPacketToLowerLayer:sum(packetBytes) 	0
attr interpolationmode  none
attr source  sentPacketToLowerLayer
scalar Tests.ue[29].nic.mac 	sentPacketToUpperLayer:count 	0
attr interpolationmode  none
attr source  sentPacketToUpperLayer
scalar Tests.ue[29].nic.mac 	sentPacketToUpperLayer:sum(packetBytes) 	0
attr interpolationmode  none
attr source  sentPacketToUpperLayer
scalar Tests.ue[29].nic.mac 	receivedPacketFromLowerLayer:count 	10635
attr interpolationmode  none
attr source  receivedPacketFromLowerLayer
scalar Tests.ue[29].nic.mac 	receivedPacketFromLowerLayer:sum(packetBytes) 	0
attr interpolationmode  none
attr source  receivedPacketFromLowerLayer
scalar Tests.ue[29].nic.mac 	receivedPacketFromUpperLayer:count 	2007
attr interpolationmode  none
attr source  receivedPacketFromUpperLayer
scalar Tests.ue[29].nic.mac 	receivedPacketFromUpperLayer:sum(packetBytes) 	47499
attr interpolationmode  none
attr source  receivedPacketFromUpperLayer
scalar Tests.ue[29].udpApp[0] 	voIPGeneratedThroughtput:timeavg 	-nan
attr source  voIPGeneratedThroughtput
attr title  "Throughput generated by the application, timeavg"
attr unit  Bps
scalar Tests.ue[29].udpApp[0] 	voIPGeneratedThroughtput:mean 	-nan
attr source  voIPGeneratedThroughtput
attr title  "Throughput generated by the application, mean"
attr unit  Bps
scalar Tests.ue[29].udpApp[0] 	voIPGeneratedThroughtput:last(sumPerDuration) 	-nan
attr source  voIPGeneratedThroughtput
attr title  "Throughput generated by the application, last(sumPerDuration)"
attr unit  Bps
scalar Tests.ue[29].udpApp[0] 	voIPGeneratedThroughtput:sum 	0
attr source  voIPGeneratedThroughtput
attr title  "Throughput generated by the application, sum"
attr unit  Bps
scalar Tests.ue[29].udp 	droppedPkBadChecksum:count 	0
attr interpolationmode  none
attr title  "packets dropped (checksum error), count"
scalar Tests.ue[29].udp 	droppedPkWrongPort:count 	0
attr interpolationmode  none
attr title  "packets dropped (wrong port), count"
scalar Tests.ue[29].udp 	passedUpPk:count 	0
attr interpolationmode  none
attr title  "packets passed up, count"
scalar Tests.ue[29].udp 	rcvdPk:count 	0
attr interpolationmode  none
attr source  rcvdPk
attr title  "packets received, count"
scalar Tests.ue[29].udp 	rcvdPk:sum(packetBytes) 	0
attr interpolationmode  none
attr source  rcvdPk
attr title  "packets received, sum(packetBytes)"
scalar Tests.ue[29].udp 	sentPk:count 	669
attr interpolationmode  none
attr source  sentPk
attr title  "packets sent, count"
scalar Tests.ue[29].udp 	sentPk:sum(packetBytes) 	32112
attr interpolationmode  none
attr source  sentPk
attr title  "packets sent, sum(packetBytes)"
