version 2
run SingleCell-DL-1-20151118-10:31:20-3153
attr configname SingleCell-DL
attr datetime 20151118-10:31:20
attr experiment SingleCell-DL
attr inifile omnetpp.ini
attr iterationvars $numUEs=30
attr iterationvars2 "$numUEs=30, $repetition=1"
attr measurement $numUEs=30
attr network omnethybridue.networks.Tests
attr numUEs 30
attr processid 3153
attr repetition 1
attr replication #1
attr resultdir results
attr runnumber 1
attr seedset 1

scalar . 	numUEs 	30
scalar Tests 	hackForCreateResultsFolder 	0
