version 2
run SingleCell-DL-3-20151112-12:06:43-4132
attr configname SingleCell-DL
attr datetime 20151112-12:06:43
attr experiment SingleCell-DL
attr inifile omnetpp.ini
attr iterationvars $numUEs=30
attr iterationvars2 "$numUEs=30, $repetition=3"
attr measurement $numUEs=30
attr network lte.simulations.networks.Tests
attr numUEs 30
attr processid 4132
attr repetition 3
attr replication #3
attr resultdir results
attr runnumber 3
attr seedset 3

scalar . 	numUEs 	30
scalar Tests 	hackForCreateResultsFolder 	0
scalar Tests.server.networkLayer.arp 	failedARPResolution:count 	0
attr title  "ARP failed resolutions, count"
scalar Tests.server.networkLayer.arp 	completedARPResolution:count 	0
attr title  "ARP completed resolutions, count"
scalar Tests.server.networkLayer.arp 	initiatedARPResolution:count 	0
attr title  "ARP initiated resolutions, count"
scalar Tests.server.networkLayer.arp 	sentReply:count 	0
attr title  "ARP replies sent, count"
scalar Tests.server.networkLayer.arp 	sentReq:count 	0
attr title  "ARP request sent, count"
scalar Tests.server.lo0.lo 	droppedPkBitError:count 	0
attr interpolationmode  none
attr source  dropPkBitError
attr title  "packets dropped/bit error, count"
scalar Tests.server.lo0.lo 	droppedPkBitError:sum(packetBytes) 	0
attr interpolationmode  none
attr source  dropPkBitError
attr title  "packets dropped/bit error, sum(packetBytes)"
scalar Tests.server.lo0.lo 	rcvdPkFromHL:count 	0
attr interpolationmode  none
attr source  packetReceivedFromUpper
attr title  "packets received from higher layer, count"
scalar Tests.server.lo0.lo 	rcvdPkFromHL:sum(packetBytes) 	0
attr interpolationmode  none
attr source  packetReceivedFromUpper
attr title  "packets received from higher layer, sum(packetBytes)"
scalar Tests.server.lo0.lo 	passedUpPk:count 	0
attr interpolationmode  none
attr source  packetSentToUpper
attr title  "packets passed to higher layer, count"
scalar Tests.server.lo0.lo 	passedUpPk:sum(packetBytes) 	0
attr interpolationmode  none
attr source  packetSentToUpper
attr title  "packets passed to higher layer, sum(packetBytes)"
scalar Tests.server.ppp[0].queue 	queueLength:max 	-nan
attr interpolationmode  sample-hold
attr title  "queue length, max"
scalar Tests.server.ppp[0].queue 	queueLength:timeavg 	-nan
attr interpolationmode  sample-hold
attr title  "queue length, timeavg"
statistic Tests.server.ppp[0].queue 	queueingTime:histogram
field count 0
field mean 0
field stddev -nan
field sum 0
field sqrsum 0
field min 0
field max 0
attr interpolationmode  none
attr title  "queueing time, histogram"
bin	-INF	0
bin	-0.5	0
bin	-0.46666666666667	0
bin	-0.43333333333333	0
bin	-0.4	0
bin	-0.36666666666667	0
bin	-0.33333333333333	0
bin	-0.3	0
bin	-0.26666666666667	0
bin	-0.23333333333333	0
bin	-0.2	0
bin	-0.16666666666667	0
bin	-0.13333333333333	0
bin	-0.1	0
bin	-0.066666666666667	0
bin	-0.033333333333333	0
bin	-6.9388939039072e-18	0
bin	0.033333333333333	0
bin	0.066666666666667	0
bin	0.1	0
bin	0.13333333333333	0
bin	0.16666666666667	0
bin	0.2	0
bin	0.23333333333333	0
bin	0.26666666666667	0
bin	0.3	0
bin	0.33333333333333	0
bin	0.36666666666667	0
bin	0.4	0
bin	0.43333333333333	0
bin	0.46666666666667	0
bin	0.5	0
scalar Tests.server.ppp[0].queue 	dropPk:count 	0
attr interpolationmode  none
attr source  dropPkByQueue
attr title  "dropped packets, count"
scalar Tests.server.ppp[0].queue 	dropPk:sum(packetBytes) 	0
attr interpolationmode  none
attr source  dropPkByQueue
attr title  "dropped packets, sum(packetBytes)"
scalar Tests.server.ppp[0].queue 	rcvdPk:count 	0
attr interpolationmode  none
attr title  "received packets, count"
scalar Tests.server.ppp[0].queue 	rcvdPk:sum(packetBytes) 	0
attr interpolationmode  none
attr title  "received packets, sum(packetBytes)"
scalar Tests.server.ppp[0].ppp 	txState:timeavg 	-nan
attr interpolationmode  sample-hold
attr title  "tx state, timeavg"
scalar Tests.server.ppp[0].ppp 	droppedPkIfaceDown:count 	0
attr interpolationmode  none
attr source  dropPkIfaceDown
attr title  "packets dropped/interface down, count"
scalar Tests.server.ppp[0].ppp 	droppedPkIfaceDown:sum(packetBytes) 	0
attr interpolationmode  none
attr source  dropPkIfaceDown
attr title  "packets dropped/interface down, sum(packetBytes)"
scalar Tests.server.ppp[0].ppp 	droppedPkBitError:count 	0
attr interpolationmode  none
attr source  dropPkBitError
attr title  "packets dropped/bit error, count"
scalar Tests.server.ppp[0].ppp 	droppedPkBitError:sum(packetBytes) 	0
attr interpolationmode  none
attr source  dropPkBitError
attr title  "packets dropped/bit error, sum(packetBytes)"
scalar Tests.server.ppp[0].ppp 	rxPkOk:count 	0
attr interpolationmode  none
attr source  rxPkOk
attr title  "packets received OK, count"
scalar Tests.server.ppp[0].ppp 	rxPkOk:sum(packetBytes) 	0
attr interpolationmode  none
attr source  rxPkOk
attr title  "packets received OK, sum(packetBytes)"
scalar Tests.server.ppp[0].ppp 	rcvdPkFromHL:count 	0
attr interpolationmode  none
attr source  packetReceivedFromUpper
attr title  "packets received from higher layer, count"
scalar Tests.server.ppp[0].ppp 	rcvdPkFromHL:sum(packetBytes) 	0
attr interpolationmode  none
attr source  packetReceivedFromUpper
attr title  "packets received from higher layer, sum(packetBytes)"
scalar Tests.server.ppp[0].ppp 	passedUpPk:count 	0
attr interpolationmode  none
attr source  packetSentToUpper
attr title  "packets passed to higher layer, count"
scalar Tests.server.ppp[0].ppp 	passedUpPk:sum(packetBytes) 	0
attr interpolationmode  none
attr source  packetSentToUpper
attr title  "packets passed to higher layer, sum(packetBytes)"
scalar Tests.server.ppp[0].ppp 	txPk:count 	0
attr interpolationmode  none
attr source  packetSentToLower
attr title  "packets transmitted, count"
scalar Tests.server.ppp[0].ppp 	txPk:sum(packetBytes) 	0
attr interpolationmode  none
attr source  packetSentToLower
attr title  "packets transmitted, sum(packetBytes)"
scalar Tests.router.networkLayer.arp 	failedARPResolution:count 	0
attr title  "ARP failed resolutions, count"
scalar Tests.router.networkLayer.arp 	completedARPResolution:count 	0
attr title  "ARP completed resolutions, count"
scalar Tests.router.networkLayer.arp 	initiatedARPResolution:count 	0
attr title  "ARP initiated resolutions, count"
scalar Tests.router.networkLayer.arp 	sentReply:count 	0
attr title  "ARP replies sent, count"
scalar Tests.router.networkLayer.arp 	sentReq:count 	0
attr title  "ARP request sent, count"
scalar Tests.router.lo0.lo 	droppedPkBitError:count 	0
attr interpolationmode  none
attr source  dropPkBitError
attr title  "packets dropped/bit error, count"
scalar Tests.router.lo0.lo 	droppedPkBitError:sum(packetBytes) 	0
attr interpolationmode  none
attr source  dropPkBitError
attr title  "packets dropped/bit error, sum(packetBytes)"
scalar Tests.router.lo0.lo 	rcvdPkFromHL:count 	0
attr interpolationmode  none
attr source  packetReceivedFromUpper
attr title  "packets received from higher layer, count"
scalar Tests.router.lo0.lo 	rcvdPkFromHL:sum(packetBytes) 	0
attr interpolationmode  none
attr source  packetReceivedFromUpper
attr title  "packets received from higher layer, sum(packetBytes)"
scalar Tests.router.lo0.lo 	passedUpPk:count 	0
attr interpolationmode  none
attr source  packetSentToUpper
attr title  "packets passed to higher layer, count"
scalar Tests.router.lo0.lo 	passedUpPk:sum(packetBytes) 	0
attr interpolationmode  none
attr source  packetSentToUpper
attr title  "packets passed to higher layer, sum(packetBytes)"
scalar Tests.router.ppp[0].queue 	queueLength:max 	-nan
attr interpolationmode  sample-hold
attr title  "queue length, max"
scalar Tests.router.ppp[0].queue 	queueLength:timeavg 	-nan
attr interpolationmode  sample-hold
attr title  "queue length, timeavg"
statistic Tests.router.ppp[0].queue 	queueingTime:histogram
field count 0
field mean 0
field stddev -nan
field sum 0
field sqrsum 0
field min 0
field max 0
attr interpolationmode  none
attr title  "queueing time, histogram"
bin	-INF	0
bin	-0.5	0
bin	-0.46666666666667	0
bin	-0.43333333333333	0
bin	-0.4	0
bin	-0.36666666666667	0
bin	-0.33333333333333	0
bin	-0.3	0
bin	-0.26666666666667	0
bin	-0.23333333333333	0
bin	-0.2	0
bin	-0.16666666666667	0
bin	-0.13333333333333	0
bin	-0.1	0
bin	-0.066666666666667	0
bin	-0.033333333333333	0
bin	-6.9388939039072e-18	0
bin	0.033333333333333	0
bin	0.066666666666667	0
bin	0.1	0
bin	0.13333333333333	0
bin	0.16666666666667	0
bin	0.2	0
bin	0.23333333333333	0
bin	0.26666666666667	0
bin	0.3	0
bin	0.33333333333333	0
bin	0.36666666666667	0
bin	0.4	0
bin	0.43333333333333	0
bin	0.46666666666667	0
bin	0.5	0
scalar Tests.router.ppp[0].queue 	dropPk:count 	0
attr interpolationmode  none
attr source  dropPkByQueue
attr title  "dropped packets, count"
scalar Tests.router.ppp[0].queue 	dropPk:sum(packetBytes) 	0
attr interpolationmode  none
attr source  dropPkByQueue
attr title  "dropped packets, sum(packetBytes)"
scalar Tests.router.ppp[0].queue 	rcvdPk:count 	0
attr interpolationmode  none
attr title  "received packets, count"
scalar Tests.router.ppp[0].queue 	rcvdPk:sum(packetBytes) 	0
attr interpolationmode  none
attr title  "received packets, sum(packetBytes)"
scalar Tests.router.ppp[0].ppp 	txState:timeavg 	-nan
attr interpolationmode  sample-hold
attr title  "tx state, timeavg"
scalar Tests.router.ppp[0].ppp 	droppedPkIfaceDown:count 	0
attr interpolationmode  none
attr source  dropPkIfaceDown
attr title  "packets dropped/interface down, count"
scalar Tests.router.ppp[0].ppp 	droppedPkIfaceDown:sum(packetBytes) 	0
attr interpolationmode  none
attr source  dropPkIfaceDown
attr title  "packets dropped/interface down, sum(packetBytes)"
scalar Tests.router.ppp[0].ppp 	droppedPkBitError:count 	0
attr interpolationmode  none
attr source  dropPkBitError
attr title  "packets dropped/bit error, count"
scalar Tests.router.ppp[0].ppp 	droppedPkBitError:sum(packetBytes) 	0
attr interpolationmode  none
attr source  dropPkBitError
attr title  "packets dropped/bit error, sum(packetBytes)"
scalar Tests.router.ppp[0].ppp 	rxPkOk:count 	0
attr interpolationmode  none
attr source  rxPkOk
attr title  "packets received OK, count"
scalar Tests.router.ppp[0].ppp 	rxPkOk:sum(packetBytes) 	0
attr interpolationmode  none
attr source  rxPkOk
attr title  "packets received OK, sum(packetBytes)"
scalar Tests.router.ppp[0].ppp 	rcvdPkFromHL:count 	0
attr interpolationmode  none
attr source  packetReceivedFromUpper
attr title  "packets received from higher layer, count"
scalar Tests.router.ppp[0].ppp 	rcvdPkFromHL:sum(packetBytes) 	0
attr interpolationmode  none
attr source  packetReceivedFromUpper
attr title  "packets received from higher layer, sum(packetBytes)"
scalar Tests.router.ppp[0].ppp 	passedUpPk:count 	0
attr interpolationmode  none
attr source  packetSentToUpper
attr title  "packets passed to higher layer, count"
scalar Tests.router.ppp[0].ppp 	passedUpPk:sum(packetBytes) 	0
attr interpolationmode  none
attr source  packetSentToUpper
attr title  "packets passed to higher layer, sum(packetBytes)"
scalar Tests.router.ppp[0].ppp 	txPk:count 	0
attr interpolationmode  none
attr source  packetSentToLower
attr title  "packets transmitted, count"
scalar Tests.router.ppp[0].ppp 	txPk:sum(packetBytes) 	0
attr interpolationmode  none
attr source  packetSentToLower
attr title  "packets transmitted, sum(packetBytes)"
scalar Tests.router.ppp[1].queue 	queueLength:max 	-nan
attr interpolationmode  sample-hold
attr title  "queue length, max"
scalar Tests.router.ppp[1].queue 	queueLength:timeavg 	-nan
attr interpolationmode  sample-hold
attr title  "queue length, timeavg"
statistic Tests.router.ppp[1].queue 	queueingTime:histogram
field count 0
field mean 0
field stddev -nan
field sum 0
field sqrsum 0
field min 0
field max 0
attr interpolationmode  none
attr title  "queueing time, histogram"
bin	-INF	0
bin	-0.5	0
bin	-0.46666666666667	0
bin	-0.43333333333333	0
bin	-0.4	0
bin	-0.36666666666667	0
bin	-0.33333333333333	0
bin	-0.3	0
bin	-0.26666666666667	0
bin	-0.23333333333333	0
bin	-0.2	0
bin	-0.16666666666667	0
bin	-0.13333333333333	0
bin	-0.1	0
bin	-0.066666666666667	0
bin	-0.033333333333333	0
bin	-6.9388939039072e-18	0
bin	0.033333333333333	0
bin	0.066666666666667	0
bin	0.1	0
bin	0.13333333333333	0
bin	0.16666666666667	0
bin	0.2	0
bin	0.23333333333333	0
bin	0.26666666666667	0
bin	0.3	0
bin	0.33333333333333	0
bin	0.36666666666667	0
bin	0.4	0
bin	0.43333333333333	0
bin	0.46666666666667	0
bin	0.5	0
scalar Tests.router.ppp[1].queue 	dropPk:count 	0
attr interpolationmode  none
attr source  dropPkByQueue
attr title  "dropped packets, count"
scalar Tests.router.ppp[1].queue 	dropPk:sum(packetBytes) 	0
attr interpolationmode  none
attr source  dropPkByQueue
attr title  "dropped packets, sum(packetBytes)"
scalar Tests.router.ppp[1].queue 	rcvdPk:count 	0
attr interpolationmode  none
attr title  "received packets, count"
scalar Tests.router.ppp[1].queue 	rcvdPk:sum(packetBytes) 	0
attr interpolationmode  none
attr title  "received packets, sum(packetBytes)"
scalar Tests.router.ppp[1].ppp 	txState:timeavg 	-nan
attr interpolationmode  sample-hold
attr title  "tx state, timeavg"
scalar Tests.router.ppp[1].ppp 	droppedPkIfaceDown:count 	0
attr interpolationmode  none
attr source  dropPkIfaceDown
attr title  "packets dropped/interface down, count"
scalar Tests.router.ppp[1].ppp 	droppedPkIfaceDown:sum(packetBytes) 	0
attr interpolationmode  none
attr source  dropPkIfaceDown
attr title  "packets dropped/interface down, sum(packetBytes)"
scalar Tests.router.ppp[1].ppp 	droppedPkBitError:count 	0
attr interpolationmode  none
attr source  dropPkBitError
attr title  "packets dropped/bit error, count"
scalar Tests.router.ppp[1].ppp 	droppedPkBitError:sum(packetBytes) 	0
attr interpolationmode  none
attr source  dropPkBitError
attr title  "packets dropped/bit error, sum(packetBytes)"
scalar Tests.router.ppp[1].ppp 	rxPkOk:count 	0
attr interpolationmode  none
attr source  rxPkOk
attr title  "packets received OK, count"
scalar Tests.router.ppp[1].ppp 	rxPkOk:sum(packetBytes) 	0
attr interpolationmode  none
attr source  rxPkOk
attr title  "packets received OK, sum(packetBytes)"
scalar Tests.router.ppp[1].ppp 	rcvdPkFromHL:count 	0
attr interpolationmode  none
attr source  packetReceivedFromUpper
attr title  "packets received from higher layer, count"
scalar Tests.router.ppp[1].ppp 	rcvdPkFromHL:sum(packetBytes) 	0
attr interpolationmode  none
attr source  packetReceivedFromUpper
attr title  "packets received from higher layer, sum(packetBytes)"
scalar Tests.router.ppp[1].ppp 	passedUpPk:count 	0
attr interpolationmode  none
attr source  packetSentToUpper
attr title  "packets passed to higher layer, count"
scalar Tests.router.ppp[1].ppp 	passedUpPk:sum(packetBytes) 	0
attr interpolationmode  none
attr source  packetSentToUpper
attr title  "packets passed to higher layer, sum(packetBytes)"
scalar Tests.router.ppp[1].ppp 	txPk:count 	0
attr interpolationmode  none
attr source  packetSentToLower
attr title  "packets transmitted, count"
scalar Tests.router.ppp[1].ppp 	txPk:sum(packetBytes) 	0
attr interpolationmode  none
attr source  packetSentToLower
attr title  "packets transmitted, sum(packetBytes)"
scalar Tests.eNodeB.nic.pdcpRrc 	sentPacketToLowerLayer:count 	0
attr interpolationmode  none
attr source  sentPacketToLowerLayer
scalar Tests.eNodeB.nic.pdcpRrc 	sentPacketToLowerLayer:sum(packetBytes) 	0
attr interpolationmode  none
attr source  sentPacketToLowerLayer
scalar Tests.eNodeB.nic.pdcpRrc 	sentPacketToUpperLayer:count 	0
attr interpolationmode  none
attr source  sentPacketToUpperLayer
scalar Tests.eNodeB.nic.pdcpRrc 	sentPacketToUpperLayer:sum(packetBytes) 	0
attr interpolationmode  none
attr source  sentPacketToUpperLayer
scalar Tests.eNodeB.nic.pdcpRrc 	receivedPacketFromLowerLayer:count 	0
attr interpolationmode  none
attr source  receivedPacketFromLowerLayer
scalar Tests.eNodeB.nic.pdcpRrc 	receivedPacketFromLowerLayer:sum(packetBytes) 	0
attr interpolationmode  none
attr source  receivedPacketFromLowerLayer
scalar Tests.eNodeB.nic.pdcpRrc 	receivedPacketFromUpperLayer:count 	0
attr interpolationmode  none
attr source  receivedPacketFromUpperLayer
scalar Tests.eNodeB.nic.pdcpRrc 	receivedPacketFromUpperLayer:sum(packetBytes) 	0
attr interpolationmode  none
attr source  receivedPacketFromUpperLayer
scalar Tests.eNodeB.nic.mac 	cqiDlMuMimo4:lteAvg 	2.4466666666667
attr source  cqiDlMuMimo4
attr title  "Average cqi MuMimo band 4, lteAvg"
attr unit  cqi
scalar Tests.eNodeB.nic.mac 	cqiDlMuMimo4:lteAvg 	14.267333333333
attr source  cqiDlMuMimo4
attr title  "Average cqi MuMimo band 4, lteAvg"
attr unit  cqi
scalar Tests.eNodeB.nic.mac 	cqiDlMuMimo4:lteAvg 	14.476666666667
attr source  cqiDlMuMimo4
attr title  "Average cqi MuMimo band 4, lteAvg"
attr unit  cqi
scalar Tests.eNodeB.nic.mac 	cqiDlMuMimo4:lteAvg 	9.6163333333333
attr source  cqiDlMuMimo4
attr title  "Average cqi MuMimo band 4, lteAvg"
attr unit  cqi
scalar Tests.eNodeB.nic.mac 	cqiDlMuMimo4:lteAvg 	13.700666666667
attr source  cqiDlMuMimo4
attr title  "Average cqi MuMimo band 4, lteAvg"
attr unit  cqi
scalar Tests.eNodeB.nic.mac 	cqiDlMuMimo4:lteAvg 	9.9056666666667
attr source  cqiDlMuMimo4
attr title  "Average cqi MuMimo band 4, lteAvg"
attr unit  cqi
scalar Tests.eNodeB.nic.mac 	cqiDlMuMimo4:lteAvg 	9.5006666666667
attr source  cqiDlMuMimo4
attr title  "Average cqi MuMimo band 4, lteAvg"
attr unit  cqi
scalar Tests.eNodeB.nic.mac 	cqiDlMuMimo4:lteAvg 	14.99
attr source  cqiDlMuMimo4
attr title  "Average cqi MuMimo band 4, lteAvg"
attr unit  cqi
scalar Tests.eNodeB.nic.mac 	cqiDlMuMimo4:lteAvg 	14.365666666667
attr source  cqiDlMuMimo4
attr title  "Average cqi MuMimo band 4, lteAvg"
attr unit  cqi
scalar Tests.eNodeB.nic.mac 	cqiDlMuMimo4:lteAvg 	8.9726666666667
attr source  cqiDlMuMimo4
attr title  "Average cqi MuMimo band 4, lteAvg"
attr unit  cqi
scalar Tests.eNodeB.nic.mac 	cqiDlMuMimo4:lteAvg 	9.405
attr source  cqiDlMuMimo4
attr title  "Average cqi MuMimo band 4, lteAvg"
attr unit  cqi
scalar Tests.eNodeB.nic.mac 	cqiDlMuMimo4:lteAvg 	12.791333333333
attr source  cqiDlMuMimo4
attr title  "Average cqi MuMimo band 4, lteAvg"
attr unit  cqi
scalar Tests.eNodeB.nic.mac 	cqiDlMuMimo4:lteAvg 	13.779333333333
attr source  cqiDlMuMimo4
attr title  "Average cqi MuMimo band 4, lteAvg"
attr unit  cqi
scalar Tests.eNodeB.nic.mac 	cqiDlMuMimo4:lteAvg 	14.98
attr source  cqiDlMuMimo4
attr title  "Average cqi MuMimo band 4, lteAvg"
attr unit  cqi
scalar Tests.eNodeB.nic.mac 	cqiDlMuMimo4:lteAvg 	11.875
attr source  cqiDlMuMimo4
attr title  "Average cqi MuMimo band 4, lteAvg"
attr unit  cqi
scalar Tests.eNodeB.nic.mac 	cqiDlMuMimo4:lteAvg 	14.316
attr source  cqiDlMuMimo4
attr title  "Average cqi MuMimo band 4, lteAvg"
attr unit  cqi
scalar Tests.eNodeB.nic.mac 	cqiDlMuMimo4:lteAvg 	14.999666666667
attr source  cqiDlMuMimo4
attr title  "Average cqi MuMimo band 4, lteAvg"
attr unit  cqi
scalar Tests.eNodeB.nic.mac 	cqiDlMuMimo4:lteAvg 	9.5083333333333
attr source  cqiDlMuMimo4
attr title  "Average cqi MuMimo band 4, lteAvg"
attr unit  cqi
scalar Tests.eNodeB.nic.mac 	cqiDlMuMimo4:lteAvg 	14.227
attr source  cqiDlMuMimo4
attr title  "Average cqi MuMimo band 4, lteAvg"
attr unit  cqi
scalar Tests.eNodeB.nic.mac 	cqiDlMuMimo4:lteAvg 	12.733666666667
attr source  cqiDlMuMimo4
attr title  "Average cqi MuMimo band 4, lteAvg"
attr unit  cqi
scalar Tests.eNodeB.nic.mac 	cqiDlMuMimo4:lteAvg 	13.323666666667
attr source  cqiDlMuMimo4
attr title  "Average cqi MuMimo band 4, lteAvg"
attr unit  cqi
scalar Tests.eNodeB.nic.mac 	cqiDlMuMimo4:lteAvg 	13.431333333333
attr source  cqiDlMuMimo4
attr title  "Average cqi MuMimo band 4, lteAvg"
attr unit  cqi
scalar Tests.eNodeB.nic.mac 	cqiDlMuMimo4:lteAvg 	10.126
attr source  cqiDlMuMimo4
attr title  "Average cqi MuMimo band 4, lteAvg"
attr unit  cqi
scalar Tests.eNodeB.nic.mac 	cqiDlMuMimo4:lteAvg 	12.520666666667
attr source  cqiDlMuMimo4
attr title  "Average cqi MuMimo band 4, lteAvg"
attr unit  cqi
scalar Tests.eNodeB.nic.mac 	cqiDlMuMimo4:lteAvg 	7.2396666666667
attr source  cqiDlMuMimo4
attr title  "Average cqi MuMimo band 4, lteAvg"
attr unit  cqi
scalar Tests.eNodeB.nic.mac 	cqiDlMuMimo4:lteAvg 	14.970666666667
attr source  cqiDlMuMimo4
attr title  "Average cqi MuMimo band 4, lteAvg"
attr unit  cqi
scalar Tests.eNodeB.nic.mac 	cqiDlMuMimo4:lteAvg 	13.672333333333
attr source  cqiDlMuMimo4
attr title  "Average cqi MuMimo band 4, lteAvg"
attr unit  cqi
scalar Tests.eNodeB.nic.mac 	cqiDlMuMimo4:lteAvg 	12.038
attr source  cqiDlMuMimo4
attr title  "Average cqi MuMimo band 4, lteAvg"
attr unit  cqi
scalar Tests.eNodeB.nic.mac 	cqiDlMuMimo4:lteAvg 	13.418
attr source  cqiDlMuMimo4
attr title  "Average cqi MuMimo band 4, lteAvg"
attr unit  cqi
scalar Tests.eNodeB.nic.mac 	cqiDlMuMimo4:lteAvg 	12.002333333333
attr source  cqiDlMuMimo4
attr title  "Average cqi MuMimo band 4, lteAvg"
attr unit  cqi
scalar Tests.eNodeB.nic.mac 	cqiDlMuMimo3:lteAvg 	4.5
attr source  cqiDlMuMimo3
attr title  "Average cqi MuMimo band 3, lteAvg"
attr unit  cqi
scalar Tests.eNodeB.nic.mac 	cqiDlMuMimo3:lteAvg 	14.903
attr source  cqiDlMuMimo3
attr title  "Average cqi MuMimo band 3, lteAvg"
attr unit  cqi
scalar Tests.eNodeB.nic.mac 	cqiDlMuMimo3:lteAvg 	14.717666666667
attr source  cqiDlMuMimo3
attr title  "Average cqi MuMimo band 3, lteAvg"
attr unit  cqi
scalar Tests.eNodeB.nic.mac 	cqiDlMuMimo3:lteAvg 	5.1853333333333
attr source  cqiDlMuMimo3
attr title  "Average cqi MuMimo band 3, lteAvg"
attr unit  cqi
scalar Tests.eNodeB.nic.mac 	cqiDlMuMimo3:lteAvg 	12.445666666667
attr source  cqiDlMuMimo3
attr title  "Average cqi MuMimo band 3, lteAvg"
attr unit  cqi
scalar Tests.eNodeB.nic.mac 	cqiDlMuMimo3:lteAvg 	13.482666666667
attr source  cqiDlMuMimo3
attr title  "Average cqi MuMimo band 3, lteAvg"
attr unit  cqi
scalar Tests.eNodeB.nic.mac 	cqiDlMuMimo3:lteAvg 	6.085
attr source  cqiDlMuMimo3
attr title  "Average cqi MuMimo band 3, lteAvg"
attr unit  cqi
scalar Tests.eNodeB.nic.mac 	cqiDlMuMimo3:lteAvg 	14.99
attr source  cqiDlMuMimo3
attr title  "Average cqi MuMimo band 3, lteAvg"
attr unit  cqi
scalar Tests.eNodeB.nic.mac 	cqiDlMuMimo3:lteAvg 	10.181666666667
attr source  cqiDlMuMimo3
attr title  "Average cqi MuMimo band 3, lteAvg"
attr unit  cqi
scalar Tests.eNodeB.nic.mac 	cqiDlMuMimo3:lteAvg 	3.8916666666667
attr source  cqiDlMuMimo3
attr title  "Average cqi MuMimo band 3, lteAvg"
attr unit  cqi
scalar Tests.eNodeB.nic.mac 	cqiDlMuMimo3:lteAvg 	8.273
attr source  cqiDlMuMimo3
attr title  "Average cqi MuMimo band 3, lteAvg"
attr unit  cqi
scalar Tests.eNodeB.nic.mac 	cqiDlMuMimo3:lteAvg 	5.5143333333333
attr source  cqiDlMuMimo3
attr title  "Average cqi MuMimo band 3, lteAvg"
attr unit  cqi
scalar Tests.eNodeB.nic.mac 	cqiDlMuMimo3:lteAvg 	14.918333333333
attr source  cqiDlMuMimo3
attr title  "Average cqi MuMimo band 3, lteAvg"
attr unit  cqi
scalar Tests.eNodeB.nic.mac 	cqiDlMuMimo3:lteAvg 	14.973333333333
attr source  cqiDlMuMimo3
attr title  "Average cqi MuMimo band 3, lteAvg"
attr unit  cqi
scalar Tests.eNodeB.nic.mac 	cqiDlMuMimo3:lteAvg 	12.831666666667
attr source  cqiDlMuMimo3
attr title  "Average cqi MuMimo band 3, lteAvg"
attr unit  cqi
scalar Tests.eNodeB.nic.mac 	cqiDlMuMimo3:lteAvg 	14.340333333333
attr source  cqiDlMuMimo3
attr title  "Average cqi MuMimo band 3, lteAvg"
attr unit  cqi
scalar Tests.eNodeB.nic.mac 	cqiDlMuMimo3:lteAvg 	14.999333333333
attr source  cqiDlMuMimo3
attr title  "Average cqi MuMimo band 3, lteAvg"
attr unit  cqi
scalar Tests.eNodeB.nic.mac 	cqiDlMuMimo3:lteAvg 	10.484
attr source  cqiDlMuMimo3
attr title  "Average cqi MuMimo band 3, lteAvg"
attr unit  cqi
scalar Tests.eNodeB.nic.mac 	cqiDlMuMimo3:lteAvg 	11.478333333333
attr source  cqiDlMuMimo3
attr title  "Average cqi MuMimo band 3, lteAvg"
attr unit  cqi
scalar Tests.eNodeB.nic.mac 	cqiDlMuMimo3:lteAvg 	14.706666666667
attr source  cqiDlMuMimo3
attr title  "Average cqi MuMimo band 3, lteAvg"
attr unit  cqi
scalar Tests.eNodeB.nic.mac 	cqiDlMuMimo3:lteAvg 	14.652666666667
attr source  cqiDlMuMimo3
attr title  "Average cqi MuMimo band 3, lteAvg"
attr unit  cqi
scalar Tests.eNodeB.nic.mac 	cqiDlMuMimo3:lteAvg 	12.119333333333
attr source  cqiDlMuMimo3
attr title  "Average cqi MuMimo band 3, lteAvg"
attr unit  cqi
scalar Tests.eNodeB.nic.mac 	cqiDlMuMimo3:lteAvg 	10.604333333333
attr source  cqiDlMuMimo3
attr title  "Average cqi MuMimo band 3, lteAvg"
attr unit  cqi
scalar Tests.eNodeB.nic.mac 	cqiDlMuMimo3:lteAvg 	10.65
attr source  cqiDlMuMimo3
attr title  "Average cqi MuMimo band 3, lteAvg"
attr unit  cqi
scalar Tests.eNodeB.nic.mac 	cqiDlMuMimo3:lteAvg 	9.055
attr source  cqiDlMuMimo3
attr title  "Average cqi MuMimo band 3, lteAvg"
attr unit  cqi
scalar Tests.eNodeB.nic.mac 	cqiDlMuMimo3:lteAvg 	14.440666666667
attr source  cqiDlMuMimo3
attr title  "Average cqi MuMimo band 3, lteAvg"
attr unit  cqi
scalar Tests.eNodeB.nic.mac 	cqiDlMuMimo3:lteAvg 	14.357
attr source  cqiDlMuMimo3
attr title  "Average cqi MuMimo band 3, lteAvg"
attr unit  cqi
scalar Tests.eNodeB.nic.mac 	cqiDlMuMimo3:lteAvg 	3.5576666666667
attr source  cqiDlMuMimo3
attr title  "Average cqi MuMimo band 3, lteAvg"
attr unit  cqi
scalar Tests.eNodeB.nic.mac 	cqiDlMuMimo3:lteAvg 	11.404
attr source  cqiDlMuMimo3
attr title  "Average cqi MuMimo band 3, lteAvg"
attr unit  cqi
scalar Tests.eNodeB.nic.mac 	cqiDlMuMimo3:lteAvg 	9.0143333333333
attr source  cqiDlMuMimo3
attr title  "Average cqi MuMimo band 3, lteAvg"
attr unit  cqi
scalar Tests.eNodeB.nic.mac 	cqiDlMuMimo2:lteAvg 	4.3676666666667
attr source  cqiDlMuMimo2
attr title  "Average cqi MuMimo band 2, lteAvg"
attr unit  cqi
scalar Tests.eNodeB.nic.mac 	cqiDlMuMimo2:lteAvg 	14.269666666667
attr source  cqiDlMuMimo2
attr title  "Average cqi MuMimo band 2, lteAvg"
attr unit  cqi
scalar Tests.eNodeB.nic.mac 	cqiDlMuMimo2:lteAvg 	13.993666666667
attr source  cqiDlMuMimo2
attr title  "Average cqi MuMimo band 2, lteAvg"
attr unit  cqi
scalar Tests.eNodeB.nic.mac 	cqiDlMuMimo2:lteAvg 	4.042
attr source  cqiDlMuMimo2
attr title  "Average cqi MuMimo band 2, lteAvg"
attr unit  cqi
scalar Tests.eNodeB.nic.mac 	cqiDlMuMimo2:lteAvg 	14.802
attr source  cqiDlMuMimo2
attr title  "Average cqi MuMimo band 2, lteAvg"
attr unit  cqi
scalar Tests.eNodeB.nic.mac 	cqiDlMuMimo2:lteAvg 	14.547333333333
attr source  cqiDlMuMimo2
attr title  "Average cqi MuMimo band 2, lteAvg"
attr unit  cqi
scalar Tests.eNodeB.nic.mac 	cqiDlMuMimo2:lteAvg 	12.331666666667
attr source  cqiDlMuMimo2
attr title  "Average cqi MuMimo band 2, lteAvg"
attr unit  cqi
scalar Tests.eNodeB.nic.mac 	cqiDlMuMimo2:lteAvg 	14.996
attr source  cqiDlMuMimo2
attr title  "Average cqi MuMimo band 2, lteAvg"
attr unit  cqi
scalar Tests.eNodeB.nic.mac 	cqiDlMuMimo2:lteAvg 	8.922
attr source  cqiDlMuMimo2
attr title  "Average cqi MuMimo band 2, lteAvg"
attr unit  cqi
scalar Tests.eNodeB.nic.mac 	cqiDlMuMimo2:lteAvg 	12.200666666667
attr source  cqiDlMuMimo2
attr title  "Average cqi MuMimo band 2, lteAvg"
attr unit  cqi
scalar Tests.eNodeB.nic.mac 	cqiDlMuMimo2:lteAvg 	9.4896666666667
attr source  cqiDlMuMimo2
attr title  "Average cqi MuMimo band 2, lteAvg"
attr unit  cqi
scalar Tests.eNodeB.nic.mac 	cqiDlMuMimo2:lteAvg 	13.662666666667
attr source  cqiDlMuMimo2
attr title  "Average cqi MuMimo band 2, lteAvg"
attr unit  cqi
scalar Tests.eNodeB.nic.mac 	cqiDlMuMimo2:lteAvg 	14.593333333333
attr source  cqiDlMuMimo2
attr title  "Average cqi MuMimo band 2, lteAvg"
attr unit  cqi
scalar Tests.eNodeB.nic.mac 	cqiDlMuMimo2:lteAvg 	14.972
attr source  cqiDlMuMimo2
attr title  "Average cqi MuMimo band 2, lteAvg"
attr unit  cqi
scalar Tests.eNodeB.nic.mac 	cqiDlMuMimo2:lteAvg 	11.589333333333
attr source  cqiDlMuMimo2
attr title  "Average cqi MuMimo band 2, lteAvg"
attr unit  cqi
scalar Tests.eNodeB.nic.mac 	cqiDlMuMimo2:lteAvg 	12.04
attr source  cqiDlMuMimo2
attr title  "Average cqi MuMimo band 2, lteAvg"
attr unit  cqi
scalar Tests.eNodeB.nic.mac 	cqiDlMuMimo2:lteAvg 	15
attr source  cqiDlMuMimo2
attr title  "Average cqi MuMimo band 2, lteAvg"
attr unit  cqi
scalar Tests.eNodeB.nic.mac 	cqiDlMuMimo2:lteAvg 	5.74
attr source  cqiDlMuMimo2
attr title  "Average cqi MuMimo band 2, lteAvg"
attr unit  cqi
scalar Tests.eNodeB.nic.mac 	cqiDlMuMimo2:lteAvg 	11.471666666667
attr source  cqiDlMuMimo2
attr title  "Average cqi MuMimo band 2, lteAvg"
attr unit  cqi
scalar Tests.eNodeB.nic.mac 	cqiDlMuMimo2:lteAvg 	14.970666666667
attr source  cqiDlMuMimo2
attr title  "Average cqi MuMimo band 2, lteAvg"
attr unit  cqi
scalar Tests.eNodeB.nic.mac 	cqiDlMuMimo2:lteAvg 	14.390666666667
attr source  cqiDlMuMimo2
attr title  "Average cqi MuMimo band 2, lteAvg"
attr unit  cqi
scalar Tests.eNodeB.nic.mac 	cqiDlMuMimo2:lteAvg 	14.685333333333
attr source  cqiDlMuMimo2
attr title  "Average cqi MuMimo band 2, lteAvg"
attr unit  cqi
scalar Tests.eNodeB.nic.mac 	cqiDlMuMimo2:lteAvg 	3.1706666666667
attr source  cqiDlMuMimo2
attr title  "Average cqi MuMimo band 2, lteAvg"
attr unit  cqi
scalar Tests.eNodeB.nic.mac 	cqiDlMuMimo2:lteAvg 	3.9816666666667
attr source  cqiDlMuMimo2
attr title  "Average cqi MuMimo band 2, lteAvg"
attr unit  cqi
scalar Tests.eNodeB.nic.mac 	cqiDlMuMimo2:lteAvg 	6.0993333333333
attr source  cqiDlMuMimo2
attr title  "Average cqi MuMimo band 2, lteAvg"
attr unit  cqi
scalar Tests.eNodeB.nic.mac 	cqiDlMuMimo2:lteAvg 	14.403333333333
attr source  cqiDlMuMimo2
attr title  "Average cqi MuMimo band 2, lteAvg"
attr unit  cqi
scalar Tests.eNodeB.nic.mac 	cqiDlMuMimo2:lteAvg 	13.789666666667
attr source  cqiDlMuMimo2
attr title  "Average cqi MuMimo band 2, lteAvg"
attr unit  cqi
scalar Tests.eNodeB.nic.mac 	cqiDlMuMimo2:lteAvg 	6.5806666666667
attr source  cqiDlMuMimo2
attr title  "Average cqi MuMimo band 2, lteAvg"
attr unit  cqi
scalar Tests.eNodeB.nic.mac 	cqiDlMuMimo2:lteAvg 	14.642666666667
attr source  cqiDlMuMimo2
attr title  "Average cqi MuMimo band 2, lteAvg"
attr unit  cqi
scalar Tests.eNodeB.nic.mac 	cqiDlMuMimo2:lteAvg 	4.7726666666667
attr source  cqiDlMuMimo2
attr title  "Average cqi MuMimo band 2, lteAvg"
attr unit  cqi
scalar Tests.eNodeB.nic.mac 	cqiDlMuMimo1:lteAvg 	2.8363333333333
attr source  cqiDlMuMimo1
attr title  "Average cqi MuMimo band 1, lteAvg"
attr unit  cqi
scalar Tests.eNodeB.nic.mac 	cqiDlMuMimo1:lteAvg 	14.191666666667
attr source  cqiDlMuMimo1
attr title  "Average cqi MuMimo band 1, lteAvg"
attr unit  cqi
scalar Tests.eNodeB.nic.mac 	cqiDlMuMimo1:lteAvg 	13.09
attr source  cqiDlMuMimo1
attr title  "Average cqi MuMimo band 1, lteAvg"
attr unit  cqi
scalar Tests.eNodeB.nic.mac 	cqiDlMuMimo1:lteAvg 	11.719
attr source  cqiDlMuMimo1
attr title  "Average cqi MuMimo band 1, lteAvg"
attr unit  cqi
scalar Tests.eNodeB.nic.mac 	cqiDlMuMimo1:lteAvg 	14.134333333333
attr source  cqiDlMuMimo1
attr title  "Average cqi MuMimo band 1, lteAvg"
attr unit  cqi
scalar Tests.eNodeB.nic.mac 	cqiDlMuMimo1:lteAvg 	9.9753333333333
attr source  cqiDlMuMimo1
attr title  "Average cqi MuMimo band 1, lteAvg"
attr unit  cqi
scalar Tests.eNodeB.nic.mac 	cqiDlMuMimo1:lteAvg 	4.167
attr source  cqiDlMuMimo1
attr title  "Average cqi MuMimo band 1, lteAvg"
attr unit  cqi
scalar Tests.eNodeB.nic.mac 	cqiDlMuMimo1:lteAvg 	14.986
attr source  cqiDlMuMimo1
attr title  "Average cqi MuMimo band 1, lteAvg"
attr unit  cqi
scalar Tests.eNodeB.nic.mac 	cqiDlMuMimo1:lteAvg 	14.910333333333
attr source  cqiDlMuMimo1
attr title  "Average cqi MuMimo band 1, lteAvg"
attr unit  cqi
scalar Tests.eNodeB.nic.mac 	cqiDlMuMimo1:lteAvg 	6.513
attr source  cqiDlMuMimo1
attr title  "Average cqi MuMimo band 1, lteAvg"
attr unit  cqi
scalar Tests.eNodeB.nic.mac 	cqiDlMuMimo1:lteAvg 	11.147666666667
attr source  cqiDlMuMimo1
attr title  "Average cqi MuMimo band 1, lteAvg"
attr unit  cqi
scalar Tests.eNodeB.nic.mac 	cqiDlMuMimo1:lteAvg 	13.515333333333
attr source  cqiDlMuMimo1
attr title  "Average cqi MuMimo band 1, lteAvg"
attr unit  cqi
scalar Tests.eNodeB.nic.mac 	cqiDlMuMimo1:lteAvg 	12.644
attr source  cqiDlMuMimo1
attr title  "Average cqi MuMimo band 1, lteAvg"
attr unit  cqi
scalar Tests.eNodeB.nic.mac 	cqiDlMuMimo1:lteAvg 	14.977666666667
attr source  cqiDlMuMimo1
attr title  "Average cqi MuMimo band 1, lteAvg"
attr unit  cqi
scalar Tests.eNodeB.nic.mac 	cqiDlMuMimo1:lteAvg 	8.506
attr source  cqiDlMuMimo1
attr title  "Average cqi MuMimo band 1, lteAvg"
attr unit  cqi
scalar Tests.eNodeB.nic.mac 	cqiDlMuMimo1:lteAvg 	14.695333333333
attr source  cqiDlMuMimo1
attr title  "Average cqi MuMimo band 1, lteAvg"
attr unit  cqi
scalar Tests.eNodeB.nic.mac 	cqiDlMuMimo1:lteAvg 	15
attr source  cqiDlMuMimo1
attr title  "Average cqi MuMimo band 1, lteAvg"
attr unit  cqi
scalar Tests.eNodeB.nic.mac 	cqiDlMuMimo1:lteAvg 	10.758666666667
attr source  cqiDlMuMimo1
attr title  "Average cqi MuMimo band 1, lteAvg"
attr unit  cqi
scalar Tests.eNodeB.nic.mac 	cqiDlMuMimo1:lteAvg 	11.883333333333
attr source  cqiDlMuMimo1
attr title  "Average cqi MuMimo band 1, lteAvg"
attr unit  cqi
scalar Tests.eNodeB.nic.mac 	cqiDlMuMimo1:lteAvg 	14.968
attr source  cqiDlMuMimo1
attr title  "Average cqi MuMimo band 1, lteAvg"
attr unit  cqi
scalar Tests.eNodeB.nic.mac 	cqiDlMuMimo1:lteAvg 	14.242
attr source  cqiDlMuMimo1
attr title  "Average cqi MuMimo band 1, lteAvg"
attr unit  cqi
scalar Tests.eNodeB.nic.mac 	cqiDlMuMimo1:lteAvg 	13.203333333333
attr source  cqiDlMuMimo1
attr title  "Average cqi MuMimo band 1, lteAvg"
attr unit  cqi
scalar Tests.eNodeB.nic.mac 	cqiDlMuMimo1:lteAvg 	6.843
attr source  cqiDlMuMimo1
attr title  "Average cqi MuMimo band 1, lteAvg"
attr unit  cqi
scalar Tests.eNodeB.nic.mac 	cqiDlMuMimo1:lteAvg 	10.180333333333
attr source  cqiDlMuMimo1
attr title  "Average cqi MuMimo band 1, lteAvg"
attr unit  cqi
scalar Tests.eNodeB.nic.mac 	cqiDlMuMimo1:lteAvg 	8.569
attr source  cqiDlMuMimo1
attr title  "Average cqi MuMimo band 1, lteAvg"
attr unit  cqi
scalar Tests.eNodeB.nic.mac 	cqiDlMuMimo1:lteAvg 	13.098333333333
attr source  cqiDlMuMimo1
attr title  "Average cqi MuMimo band 1, lteAvg"
attr unit  cqi
scalar Tests.eNodeB.nic.mac 	cqiDlMuMimo1:lteAvg 	14.384
attr source  cqiDlMuMimo1
attr title  "Average cqi MuMimo band 1, lteAvg"
attr unit  cqi
scalar Tests.eNodeB.nic.mac 	cqiDlMuMimo1:lteAvg 	4.9363333333333
attr source  cqiDlMuMimo1
attr title  "Average cqi MuMimo band 1, lteAvg"
attr unit  cqi
scalar Tests.eNodeB.nic.mac 	cqiDlMuMimo1:lteAvg 	11.556333333333
attr source  cqiDlMuMimo1
attr title  "Average cqi MuMimo band 1, lteAvg"
attr unit  cqi
scalar Tests.eNodeB.nic.mac 	cqiDlMuMimo1:lteAvg 	5.1336666666667
attr source  cqiDlMuMimo1
attr title  "Average cqi MuMimo band 1, lteAvg"
attr unit  cqi
scalar Tests.eNodeB.nic.mac 	cqiDlMuMimo0:lteAvg 	2.0743333333333
attr source  cqiDlMuMimo0
attr title  "Average cqi MuMimo band 0, lteAvg"
attr unit  cqi
scalar Tests.eNodeB.nic.mac 	cqiDlMuMimo0:lteAvg 	14.69
attr source  cqiDlMuMimo0
attr title  "Average cqi MuMimo band 0, lteAvg"
attr unit  cqi
scalar Tests.eNodeB.nic.mac 	cqiDlMuMimo0:lteAvg 	14.302666666667
attr source  cqiDlMuMimo0
attr title  "Average cqi MuMimo band 0, lteAvg"
attr unit  cqi
scalar Tests.eNodeB.nic.mac 	cqiDlMuMimo0:lteAvg 	9.4143333333333
attr source  cqiDlMuMimo0
attr title  "Average cqi MuMimo band 0, lteAvg"
attr unit  cqi
scalar Tests.eNodeB.nic.mac 	cqiDlMuMimo0:lteAvg 	11.777666666667
attr source  cqiDlMuMimo0
attr title  "Average cqi MuMimo band 0, lteAvg"
attr unit  cqi
scalar Tests.eNodeB.nic.mac 	cqiDlMuMimo0:lteAvg 	12.881666666667
attr source  cqiDlMuMimo0
attr title  "Average cqi MuMimo band 0, lteAvg"
attr unit  cqi
scalar Tests.eNodeB.nic.mac 	cqiDlMuMimo0:lteAvg 	12.196
attr source  cqiDlMuMimo0
attr title  "Average cqi MuMimo band 0, lteAvg"
attr unit  cqi
scalar Tests.eNodeB.nic.mac 	cqiDlMuMimo0:lteAvg 	14.994333333333
attr source  cqiDlMuMimo0
attr title  "Average cqi MuMimo band 0, lteAvg"
attr unit  cqi
scalar Tests.eNodeB.nic.mac 	cqiDlMuMimo0:lteAvg 	14.151666666667
attr source  cqiDlMuMimo0
attr title  "Average cqi MuMimo band 0, lteAvg"
attr unit  cqi
scalar Tests.eNodeB.nic.mac 	cqiDlMuMimo0:lteAvg 	12.69
attr source  cqiDlMuMimo0
attr title  "Average cqi MuMimo band 0, lteAvg"
attr unit  cqi
scalar Tests.eNodeB.nic.mac 	cqiDlMuMimo0:lteAvg 	7.9613333333333
attr source  cqiDlMuMimo0
attr title  "Average cqi MuMimo band 0, lteAvg"
attr unit  cqi
scalar Tests.eNodeB.nic.mac 	cqiDlMuMimo0:lteAvg 	4.5313333333333
attr source  cqiDlMuMimo0
attr title  "Average cqi MuMimo band 0, lteAvg"
attr unit  cqi
scalar Tests.eNodeB.nic.mac 	cqiDlMuMimo0:lteAvg 	14.128
attr source  cqiDlMuMimo0
attr title  "Average cqi MuMimo band 0, lteAvg"
attr unit  cqi
scalar Tests.eNodeB.nic.mac 	cqiDlMuMimo0:lteAvg 	14.982666666667
attr source  cqiDlMuMimo0
attr title  "Average cqi MuMimo band 0, lteAvg"
attr unit  cqi
scalar Tests.eNodeB.nic.mac 	cqiDlMuMimo0:lteAvg 	9.2233333333333
attr source  cqiDlMuMimo0
attr title  "Average cqi MuMimo band 0, lteAvg"
attr unit  cqi
scalar Tests.eNodeB.nic.mac 	cqiDlMuMimo0:lteAvg 	14.495333333333
attr source  cqiDlMuMimo0
attr title  "Average cqi MuMimo band 0, lteAvg"
attr unit  cqi
scalar Tests.eNodeB.nic.mac 	cqiDlMuMimo0:lteAvg 	15
attr source  cqiDlMuMimo0
attr title  "Average cqi MuMimo band 0, lteAvg"
attr unit  cqi
scalar Tests.eNodeB.nic.mac 	cqiDlMuMimo0:lteAvg 	10.482333333333
attr source  cqiDlMuMimo0
attr title  "Average cqi MuMimo band 0, lteAvg"
attr unit  cqi
scalar Tests.eNodeB.nic.mac 	cqiDlMuMimo0:lteAvg 	13.440333333333
attr source  cqiDlMuMimo0
attr title  "Average cqi MuMimo band 0, lteAvg"
attr unit  cqi
scalar Tests.eNodeB.nic.mac 	cqiDlMuMimo0:lteAvg 	14.619333333333
attr source  cqiDlMuMimo0
attr title  "Average cqi MuMimo band 0, lteAvg"
attr unit  cqi
scalar Tests.eNodeB.nic.mac 	cqiDlMuMimo0:lteAvg 	13.473666666667
attr source  cqiDlMuMimo0
attr title  "Average cqi MuMimo band 0, lteAvg"
attr unit  cqi
scalar Tests.eNodeB.nic.mac 	cqiDlMuMimo0:lteAvg 	13.276
attr source  cqiDlMuMimo0
attr title  "Average cqi MuMimo band 0, lteAvg"
attr unit  cqi
scalar Tests.eNodeB.nic.mac 	cqiDlMuMimo0:lteAvg 	6.3273333333333
attr source  cqiDlMuMimo0
attr title  "Average cqi MuMimo band 0, lteAvg"
attr unit  cqi
scalar Tests.eNodeB.nic.mac 	cqiDlMuMimo0:lteAvg 	9.738
attr source  cqiDlMuMimo0
attr title  "Average cqi MuMimo band 0, lteAvg"
attr unit  cqi
scalar Tests.eNodeB.nic.mac 	cqiDlMuMimo0:lteAvg 	2.594
attr source  cqiDlMuMimo0
attr title  "Average cqi MuMimo band 0, lteAvg"
attr unit  cqi
scalar Tests.eNodeB.nic.mac 	cqiDlMuMimo0:lteAvg 	14.205666666667
attr source  cqiDlMuMimo0
attr title  "Average cqi MuMimo band 0, lteAvg"
attr unit  cqi
scalar Tests.eNodeB.nic.mac 	cqiDlMuMimo0:lteAvg 	13.672333333333
attr source  cqiDlMuMimo0
attr title  "Average cqi MuMimo band 0, lteAvg"
attr unit  cqi
scalar Tests.eNodeB.nic.mac 	cqiDlMuMimo0:lteAvg 	6.9916666666667
attr source  cqiDlMuMimo0
attr title  "Average cqi MuMimo band 0, lteAvg"
attr unit  cqi
scalar Tests.eNodeB.nic.mac 	cqiDlMuMimo0:lteAvg 	12.485666666667
attr source  cqiDlMuMimo0
attr title  "Average cqi MuMimo band 0, lteAvg"
attr unit  cqi
scalar Tests.eNodeB.nic.mac 	cqiDlMuMimo0:lteAvg 	9.972
attr source  cqiDlMuMimo0
attr title  "Average cqi MuMimo band 0, lteAvg"
attr unit  cqi
scalar Tests.eNodeB.nic.mac 	cqiDlTxDiv4:lteAvg 	10.376333333333
attr source  cqiDlTxDiv4
attr title  "Average cqi TxDiv band 4, lteAvg"
attr unit  cqi
scalar Tests.eNodeB.nic.mac 	cqiDlTxDiv4:lteAvg 	14.995333333333
attr source  cqiDlTxDiv4
attr title  "Average cqi TxDiv band 4, lteAvg"
attr unit  cqi
scalar Tests.eNodeB.nic.mac 	cqiDlTxDiv4:lteAvg 	14.995333333333
attr source  cqiDlTxDiv4
attr title  "Average cqi TxDiv band 4, lteAvg"
attr unit  cqi
scalar Tests.eNodeB.nic.mac 	cqiDlTxDiv4:lteAvg 	14.906666666667
attr source  cqiDlTxDiv4
attr title  "Average cqi TxDiv band 4, lteAvg"
attr unit  cqi
scalar Tests.eNodeB.nic.mac 	cqiDlTxDiv4:lteAvg 	14.988333333333
attr source  cqiDlTxDiv4
attr title  "Average cqi TxDiv band 4, lteAvg"
attr unit  cqi
scalar Tests.eNodeB.nic.mac 	cqiDlTxDiv4:lteAvg 	14.983666666667
attr source  cqiDlTxDiv4
attr title  "Average cqi TxDiv band 4, lteAvg"
attr unit  cqi
scalar Tests.eNodeB.nic.mac 	cqiDlTxDiv4:lteAvg 	14.956
attr source  cqiDlTxDiv4
attr title  "Average cqi TxDiv band 4, lteAvg"
attr unit  cqi
scalar Tests.eNodeB.nic.mac 	cqiDlTxDiv4:lteAvg 	14.998333333333
attr source  cqiDlTxDiv4
attr title  "Average cqi TxDiv band 4, lteAvg"
attr unit  cqi
scalar Tests.eNodeB.nic.mac 	cqiDlTxDiv4:lteAvg 	14.992666666667
attr source  cqiDlTxDiv4
attr title  "Average cqi TxDiv band 4, lteAvg"
attr unit  cqi
scalar Tests.eNodeB.nic.mac 	cqiDlTxDiv4:lteAvg 	14.154
attr source  cqiDlTxDiv4
attr title  "Average cqi TxDiv band 4, lteAvg"
attr unit  cqi
scalar Tests.eNodeB.nic.mac 	cqiDlTxDiv4:lteAvg 	13.979333333333
attr source  cqiDlTxDiv4
attr title  "Average cqi TxDiv band 4, lteAvg"
attr unit  cqi
scalar Tests.eNodeB.nic.mac 	cqiDlTxDiv4:lteAvg 	14.974666666667
attr source  cqiDlTxDiv4
attr title  "Average cqi TxDiv band 4, lteAvg"
attr unit  cqi
scalar Tests.eNodeB.nic.mac 	cqiDlTxDiv4:lteAvg 	14.990666666667
attr source  cqiDlTxDiv4
attr title  "Average cqi TxDiv band 4, lteAvg"
attr unit  cqi
scalar Tests.eNodeB.nic.mac 	cqiDlTxDiv4:lteAvg 	15
attr source  cqiDlTxDiv4
attr title  "Average cqi TxDiv band 4, lteAvg"
attr unit  cqi
scalar Tests.eNodeB.nic.mac 	cqiDlTxDiv4:lteAvg 	14.972666666667
attr source  cqiDlTxDiv4
attr title  "Average cqi TxDiv band 4, lteAvg"
attr unit  cqi
scalar Tests.eNodeB.nic.mac 	cqiDlTxDiv4:lteAvg 	14.993
attr source  cqiDlTxDiv4
attr title  "Average cqi TxDiv band 4, lteAvg"
attr unit  cqi
scalar Tests.eNodeB.nic.mac 	cqiDlTxDiv4:lteAvg 	15
attr source  cqiDlTxDiv4
attr title  "Average cqi TxDiv band 4, lteAvg"
attr unit  cqi
scalar Tests.eNodeB.nic.mac 	cqiDlTxDiv4:lteAvg 	14.921
attr source  cqiDlTxDiv4
attr title  "Average cqi TxDiv band 4, lteAvg"
attr unit  cqi
scalar Tests.eNodeB.nic.mac 	cqiDlTxDiv4:lteAvg 	14.996666666667
attr source  cqiDlTxDiv4
attr title  "Average cqi TxDiv band 4, lteAvg"
attr unit  cqi
scalar Tests.eNodeB.nic.mac 	cqiDlTxDiv4:lteAvg 	15
attr source  cqiDlTxDiv4
attr title  "Average cqi TxDiv band 4, lteAvg"
attr unit  cqi
scalar Tests.eNodeB.nic.mac 	cqiDlTxDiv4:lteAvg 	14.993
attr source  cqiDlTxDiv4
attr title  "Average cqi TxDiv band 4, lteAvg"
attr unit  cqi
scalar Tests.eNodeB.nic.mac 	cqiDlTxDiv4:lteAvg 	14.994666666667
attr source  cqiDlTxDiv4
attr title  "Average cqi TxDiv band 4, lteAvg"
attr unit  cqi
scalar Tests.eNodeB.nic.mac 	cqiDlTxDiv4:lteAvg 	14.926333333333
attr source  cqiDlTxDiv4
attr title  "Average cqi TxDiv band 4, lteAvg"
attr unit  cqi
scalar Tests.eNodeB.nic.mac 	cqiDlTxDiv4:lteAvg 	14.958333333333
attr source  cqiDlTxDiv4
attr title  "Average cqi TxDiv band 4, lteAvg"
attr unit  cqi
scalar Tests.eNodeB.nic.mac 	cqiDlTxDiv4:lteAvg 	14.791666666667
attr source  cqiDlTxDiv4
attr title  "Average cqi TxDiv band 4, lteAvg"
attr unit  cqi
scalar Tests.eNodeB.nic.mac 	cqiDlTxDiv4:lteAvg 	15
attr source  cqiDlTxDiv4
attr title  "Average cqi TxDiv band 4, lteAvg"
attr unit  cqi
scalar Tests.eNodeB.nic.mac 	cqiDlTxDiv4:lteAvg 	14.994333333333
attr source  cqiDlTxDiv4
attr title  "Average cqi TxDiv band 4, lteAvg"
attr unit  cqi
scalar Tests.eNodeB.nic.mac 	cqiDlTxDiv4:lteAvg 	14.945333333333
attr source  cqiDlTxDiv4
attr title  "Average cqi TxDiv band 4, lteAvg"
attr unit  cqi
scalar Tests.eNodeB.nic.mac 	cqiDlTxDiv4:lteAvg 	14.988
attr source  cqiDlTxDiv4
attr title  "Average cqi TxDiv band 4, lteAvg"
attr unit  cqi
scalar Tests.eNodeB.nic.mac 	cqiDlTxDiv4:lteAvg 	14.963333333333
attr source  cqiDlTxDiv4
attr title  "Average cqi TxDiv band 4, lteAvg"
attr unit  cqi
scalar Tests.eNodeB.nic.mac 	cqiDlTxDiv3:lteAvg 	13.300666666667
attr source  cqiDlTxDiv3
attr title  "Average cqi TxDiv band 3, lteAvg"
attr unit  cqi
scalar Tests.eNodeB.nic.mac 	cqiDlTxDiv3:lteAvg 	14.992666666667
attr source  cqiDlTxDiv3
attr title  "Average cqi TxDiv band 3, lteAvg"
attr unit  cqi
scalar Tests.eNodeB.nic.mac 	cqiDlTxDiv3:lteAvg 	14.995333333333
attr source  cqiDlTxDiv3
attr title  "Average cqi TxDiv band 3, lteAvg"
attr unit  cqi
scalar Tests.eNodeB.nic.mac 	cqiDlTxDiv3:lteAvg 	13.431333333333
attr source  cqiDlTxDiv3
attr title  "Average cqi TxDiv band 3, lteAvg"
attr unit  cqi
scalar Tests.eNodeB.nic.mac 	cqiDlTxDiv3:lteAvg 	14.989666666667
attr source  cqiDlTxDiv3
attr title  "Average cqi TxDiv band 3, lteAvg"
attr unit  cqi
scalar Tests.eNodeB.nic.mac 	cqiDlTxDiv3:lteAvg 	14.978333333333
attr source  cqiDlTxDiv3
attr title  "Average cqi TxDiv band 3, lteAvg"
attr unit  cqi
scalar Tests.eNodeB.nic.mac 	cqiDlTxDiv3:lteAvg 	13.634
attr source  cqiDlTxDiv3
attr title  "Average cqi TxDiv band 3, lteAvg"
attr unit  cqi
scalar Tests.eNodeB.nic.mac 	cqiDlTxDiv3:lteAvg 	15
attr source  cqiDlTxDiv3
attr title  "Average cqi TxDiv band 3, lteAvg"
attr unit  cqi
scalar Tests.eNodeB.nic.mac 	cqiDlTxDiv3:lteAvg 	14.993
attr source  cqiDlTxDiv3
attr title  "Average cqi TxDiv band 3, lteAvg"
attr unit  cqi
scalar Tests.eNodeB.nic.mac 	cqiDlTxDiv3:lteAvg 	11.590666666667
attr source  cqiDlTxDiv3
attr title  "Average cqi TxDiv band 3, lteAvg"
attr unit  cqi
scalar Tests.eNodeB.nic.mac 	cqiDlTxDiv3:lteAvg 	13.337333333333
attr source  cqiDlTxDiv3
attr title  "Average cqi TxDiv band 3, lteAvg"
attr unit  cqi
scalar Tests.eNodeB.nic.mac 	cqiDlTxDiv3:lteAvg 	14.034666666667
attr source  cqiDlTxDiv3
attr title  "Average cqi TxDiv band 3, lteAvg"
attr unit  cqi
scalar Tests.eNodeB.nic.mac 	cqiDlTxDiv3:lteAvg 	15
attr source  cqiDlTxDiv3
attr title  "Average cqi TxDiv band 3, lteAvg"
attr unit  cqi
scalar Tests.eNodeB.nic.mac 	cqiDlTxDiv3:lteAvg 	15
attr source  cqiDlTxDiv3
attr title  "Average cqi TxDiv band 3, lteAvg"
attr unit  cqi
scalar Tests.eNodeB.nic.mac 	cqiDlTxDiv3:lteAvg 	14.976333333333
attr source  cqiDlTxDiv3
attr title  "Average cqi TxDiv band 3, lteAvg"
attr unit  cqi
scalar Tests.eNodeB.nic.mac 	cqiDlTxDiv3:lteAvg 	14.998
attr source  cqiDlTxDiv3
attr title  "Average cqi TxDiv band 3, lteAvg"
attr unit  cqi
scalar Tests.eNodeB.nic.mac 	cqiDlTxDiv3:lteAvg 	15
attr source  cqiDlTxDiv3
attr title  "Average cqi TxDiv band 3, lteAvg"
attr unit  cqi
scalar Tests.eNodeB.nic.mac 	cqiDlTxDiv3:lteAvg 	14.948666666667
attr source  cqiDlTxDiv3
attr title  "Average cqi TxDiv band 3, lteAvg"
attr unit  cqi
scalar Tests.eNodeB.nic.mac 	cqiDlTxDiv3:lteAvg 	14.993666666667
attr source  cqiDlTxDiv3
attr title  "Average cqi TxDiv band 3, lteAvg"
attr unit  cqi
scalar Tests.eNodeB.nic.mac 	cqiDlTxDiv3:lteAvg 	14.998333333333
attr source  cqiDlTxDiv3
attr title  "Average cqi TxDiv band 3, lteAvg"
attr unit  cqi
scalar Tests.eNodeB.nic.mac 	cqiDlTxDiv3:lteAvg 	14.994333333333
attr source  cqiDlTxDiv3
attr title  "Average cqi TxDiv band 3, lteAvg"
attr unit  cqi
scalar Tests.eNodeB.nic.mac 	cqiDlTxDiv3:lteAvg 	14.991
attr source  cqiDlTxDiv3
attr title  "Average cqi TxDiv band 3, lteAvg"
attr unit  cqi
scalar Tests.eNodeB.nic.mac 	cqiDlTxDiv3:lteAvg 	14.921
attr source  cqiDlTxDiv3
attr title  "Average cqi TxDiv band 3, lteAvg"
attr unit  cqi
scalar Tests.eNodeB.nic.mac 	cqiDlTxDiv3:lteAvg 	14.954333333333
attr source  cqiDlTxDiv3
attr title  "Average cqi TxDiv band 3, lteAvg"
attr unit  cqi
scalar Tests.eNodeB.nic.mac 	cqiDlTxDiv3:lteAvg 	14.942
attr source  cqiDlTxDiv3
attr title  "Average cqi TxDiv band 3, lteAvg"
attr unit  cqi
scalar Tests.eNodeB.nic.mac 	cqiDlTxDiv3:lteAvg 	14.999666666667
attr source  cqiDlTxDiv3
attr title  "Average cqi TxDiv band 3, lteAvg"
attr unit  cqi
scalar Tests.eNodeB.nic.mac 	cqiDlTxDiv3:lteAvg 	14.989666666667
attr source  cqiDlTxDiv3
attr title  "Average cqi TxDiv band 3, lteAvg"
attr unit  cqi
scalar Tests.eNodeB.nic.mac 	cqiDlTxDiv3:lteAvg 	11.834666666667
attr source  cqiDlTxDiv3
attr title  "Average cqi TxDiv band 3, lteAvg"
attr unit  cqi
scalar Tests.eNodeB.nic.mac 	cqiDlTxDiv3:lteAvg 	14.989333333333
attr source  cqiDlTxDiv3
attr title  "Average cqi TxDiv band 3, lteAvg"
attr unit  cqi
scalar Tests.eNodeB.nic.mac 	cqiDlTxDiv3:lteAvg 	14.836666666667
attr source  cqiDlTxDiv3
attr title  "Average cqi TxDiv band 3, lteAvg"
attr unit  cqi
scalar Tests.eNodeB.nic.mac 	cqiDlTxDiv2:lteAvg 	13.336666666667
attr source  cqiDlTxDiv2
attr title  "Average cqi TxDiv band 2, lteAvg"
attr unit  cqi
scalar Tests.eNodeB.nic.mac 	cqiDlTxDiv2:lteAvg 	14.997
attr source  cqiDlTxDiv2
attr title  "Average cqi TxDiv band 2, lteAvg"
attr unit  cqi
scalar Tests.eNodeB.nic.mac 	cqiDlTxDiv2:lteAvg 	14.995
attr source  cqiDlTxDiv2
attr title  "Average cqi TxDiv band 2, lteAvg"
attr unit  cqi
scalar Tests.eNodeB.nic.mac 	cqiDlTxDiv2:lteAvg 	12.833666666667
attr source  cqiDlTxDiv2
attr title  "Average cqi TxDiv band 2, lteAvg"
attr unit  cqi
scalar Tests.eNodeB.nic.mac 	cqiDlTxDiv2:lteAvg 	14.988333333333
attr source  cqiDlTxDiv2
attr title  "Average cqi TxDiv band 2, lteAvg"
attr unit  cqi
scalar Tests.eNodeB.nic.mac 	cqiDlTxDiv2:lteAvg 	14.973
attr source  cqiDlTxDiv2
attr title  "Average cqi TxDiv band 2, lteAvg"
attr unit  cqi
scalar Tests.eNodeB.nic.mac 	cqiDlTxDiv2:lteAvg 	14.975
attr source  cqiDlTxDiv2
attr title  "Average cqi TxDiv band 2, lteAvg"
attr unit  cqi
scalar Tests.eNodeB.nic.mac 	cqiDlTxDiv2:lteAvg 	15
attr source  cqiDlTxDiv2
attr title  "Average cqi TxDiv band 2, lteAvg"
attr unit  cqi
scalar Tests.eNodeB.nic.mac 	cqiDlTxDiv2:lteAvg 	14.997
attr source  cqiDlTxDiv2
attr title  "Average cqi TxDiv band 2, lteAvg"
attr unit  cqi
scalar Tests.eNodeB.nic.mac 	cqiDlTxDiv2:lteAvg 	14.970333333333
attr source  cqiDlTxDiv2
attr title  "Average cqi TxDiv band 2, lteAvg"
attr unit  cqi
scalar Tests.eNodeB.nic.mac 	cqiDlTxDiv2:lteAvg 	13.955333333333
attr source  cqiDlTxDiv2
attr title  "Average cqi TxDiv band 2, lteAvg"
attr unit  cqi
scalar Tests.eNodeB.nic.mac 	cqiDlTxDiv2:lteAvg 	14.971
attr source  cqiDlTxDiv2
attr title  "Average cqi TxDiv band 2, lteAvg"
attr unit  cqi
scalar Tests.eNodeB.nic.mac 	cqiDlTxDiv2:lteAvg 	15
attr source  cqiDlTxDiv2
attr title  "Average cqi TxDiv band 2, lteAvg"
attr unit  cqi
scalar Tests.eNodeB.nic.mac 	cqiDlTxDiv2:lteAvg 	14.999333333333
attr source  cqiDlTxDiv2
attr title  "Average cqi TxDiv band 2, lteAvg"
attr unit  cqi
scalar Tests.eNodeB.nic.mac 	cqiDlTxDiv2:lteAvg 	14.972
attr source  cqiDlTxDiv2
attr title  "Average cqi TxDiv band 2, lteAvg"
attr unit  cqi
scalar Tests.eNodeB.nic.mac 	cqiDlTxDiv2:lteAvg 	14.995666666667
attr source  cqiDlTxDiv2
attr title  "Average cqi TxDiv band 2, lteAvg"
attr unit  cqi
scalar Tests.eNodeB.nic.mac 	cqiDlTxDiv2:lteAvg 	15
attr source  cqiDlTxDiv2
attr title  "Average cqi TxDiv band 2, lteAvg"
attr unit  cqi
scalar Tests.eNodeB.nic.mac 	cqiDlTxDiv2:lteAvg 	14.144
attr source  cqiDlTxDiv2
attr title  "Average cqi TxDiv band 2, lteAvg"
attr unit  cqi
scalar Tests.eNodeB.nic.mac 	cqiDlTxDiv2:lteAvg 	14.991666666667
attr source  cqiDlTxDiv2
attr title  "Average cqi TxDiv band 2, lteAvg"
attr unit  cqi
scalar Tests.eNodeB.nic.mac 	cqiDlTxDiv2:lteAvg 	15
attr source  cqiDlTxDiv2
attr title  "Average cqi TxDiv band 2, lteAvg"
attr unit  cqi
scalar Tests.eNodeB.nic.mac 	cqiDlTxDiv2:lteAvg 	14.989333333333
attr source  cqiDlTxDiv2
attr title  "Average cqi TxDiv band 2, lteAvg"
attr unit  cqi
scalar Tests.eNodeB.nic.mac 	cqiDlTxDiv2:lteAvg 	14.99
attr source  cqiDlTxDiv2
attr title  "Average cqi TxDiv band 2, lteAvg"
attr unit  cqi
scalar Tests.eNodeB.nic.mac 	cqiDlTxDiv2:lteAvg 	11.164333333333
attr source  cqiDlTxDiv2
attr title  "Average cqi TxDiv band 2, lteAvg"
attr unit  cqi
scalar Tests.eNodeB.nic.mac 	cqiDlTxDiv2:lteAvg 	11.763666666667
attr source  cqiDlTxDiv2
attr title  "Average cqi TxDiv band 2, lteAvg"
attr unit  cqi
scalar Tests.eNodeB.nic.mac 	cqiDlTxDiv2:lteAvg 	14.531
attr source  cqiDlTxDiv2
attr title  "Average cqi TxDiv band 2, lteAvg"
attr unit  cqi
scalar Tests.eNodeB.nic.mac 	cqiDlTxDiv2:lteAvg 	15
attr source  cqiDlTxDiv2
attr title  "Average cqi TxDiv band 2, lteAvg"
attr unit  cqi
scalar Tests.eNodeB.nic.mac 	cqiDlTxDiv2:lteAvg 	14.977
attr source  cqiDlTxDiv2
attr title  "Average cqi TxDiv band 2, lteAvg"
attr unit  cqi
scalar Tests.eNodeB.nic.mac 	cqiDlTxDiv2:lteAvg 	14.011
attr source  cqiDlTxDiv2
attr title  "Average cqi TxDiv band 2, lteAvg"
attr unit  cqi
scalar Tests.eNodeB.nic.mac 	cqiDlTxDiv2:lteAvg 	14.986666666667
attr source  cqiDlTxDiv2
attr title  "Average cqi TxDiv band 2, lteAvg"
attr unit  cqi
scalar Tests.eNodeB.nic.mac 	cqiDlTxDiv2:lteAvg 	12.038
attr source  cqiDlTxDiv2
attr title  "Average cqi TxDiv band 2, lteAvg"
attr unit  cqi
scalar Tests.eNodeB.nic.mac 	cqiDlTxDiv1:lteAvg 	11.507333333333
attr source  cqiDlTxDiv1
attr title  "Average cqi TxDiv band 1, lteAvg"
attr unit  cqi
scalar Tests.eNodeB.nic.mac 	cqiDlTxDiv1:lteAvg 	14.999
attr source  cqiDlTxDiv1
attr title  "Average cqi TxDiv band 1, lteAvg"
attr unit  cqi
scalar Tests.eNodeB.nic.mac 	cqiDlTxDiv1:lteAvg 	14.988
attr source  cqiDlTxDiv1
attr title  "Average cqi TxDiv band 1, lteAvg"
attr unit  cqi
scalar Tests.eNodeB.nic.mac 	cqiDlTxDiv1:lteAvg 	14.959
attr source  cqiDlTxDiv1
attr title  "Average cqi TxDiv band 1, lteAvg"
attr unit  cqi
scalar Tests.eNodeB.nic.mac 	cqiDlTxDiv1:lteAvg 	14.989666666667
attr source  cqiDlTxDiv1
attr title  "Average cqi TxDiv band 1, lteAvg"
attr unit  cqi
scalar Tests.eNodeB.nic.mac 	cqiDlTxDiv1:lteAvg 	14.971666666667
attr source  cqiDlTxDiv1
attr title  "Average cqi TxDiv band 1, lteAvg"
attr unit  cqi
scalar Tests.eNodeB.nic.mac 	cqiDlTxDiv1:lteAvg 	13.019333333333
attr source  cqiDlTxDiv1
attr title  "Average cqi TxDiv band 1, lteAvg"
attr unit  cqi
scalar Tests.eNodeB.nic.mac 	cqiDlTxDiv1:lteAvg 	14.999333333333
attr source  cqiDlTxDiv1
attr title  "Average cqi TxDiv band 1, lteAvg"
attr unit  cqi
scalar Tests.eNodeB.nic.mac 	cqiDlTxDiv1:lteAvg 	14.992666666667
attr source  cqiDlTxDiv1
attr title  "Average cqi TxDiv band 1, lteAvg"
attr unit  cqi
scalar Tests.eNodeB.nic.mac 	cqiDlTxDiv1:lteAvg 	13.675
attr source  cqiDlTxDiv1
attr title  "Average cqi TxDiv band 1, lteAvg"
attr unit  cqi
scalar Tests.eNodeB.nic.mac 	cqiDlTxDiv1:lteAvg 	14.909
attr source  cqiDlTxDiv1
attr title  "Average cqi TxDiv band 1, lteAvg"
attr unit  cqi
scalar Tests.eNodeB.nic.mac 	cqiDlTxDiv1:lteAvg 	14.961333333333
attr source  cqiDlTxDiv1
attr title  "Average cqi TxDiv band 1, lteAvg"
attr unit  cqi
scalar Tests.eNodeB.nic.mac 	cqiDlTxDiv1:lteAvg 	14.996666666667
attr source  cqiDlTxDiv1
attr title  "Average cqi TxDiv band 1, lteAvg"
attr unit  cqi
scalar Tests.eNodeB.nic.mac 	cqiDlTxDiv1:lteAvg 	15
attr source  cqiDlTxDiv1
attr title  "Average cqi TxDiv band 1, lteAvg"
attr unit  cqi
scalar Tests.eNodeB.nic.mac 	cqiDlTxDiv1:lteAvg 	14.970666666667
attr source  cqiDlTxDiv1
attr title  "Average cqi TxDiv band 1, lteAvg"
attr unit  cqi
scalar Tests.eNodeB.nic.mac 	cqiDlTxDiv1:lteAvg 	14.997666666667
attr source  cqiDlTxDiv1
attr title  "Average cqi TxDiv band 1, lteAvg"
attr unit  cqi
scalar Tests.eNodeB.nic.mac 	cqiDlTxDiv1:lteAvg 	15
attr source  cqiDlTxDiv1
attr title  "Average cqi TxDiv band 1, lteAvg"
attr unit  cqi
scalar Tests.eNodeB.nic.mac 	cqiDlTxDiv1:lteAvg 	14.939333333333
attr source  cqiDlTxDiv1
attr title  "Average cqi TxDiv band 1, lteAvg"
attr unit  cqi
scalar Tests.eNodeB.nic.mac 	cqiDlTxDiv1:lteAvg 	14.998666666667
attr source  cqiDlTxDiv1
attr title  "Average cqi TxDiv band 1, lteAvg"
attr unit  cqi
scalar Tests.eNodeB.nic.mac 	cqiDlTxDiv1:lteAvg 	15
attr source  cqiDlTxDiv1
attr title  "Average cqi TxDiv band 1, lteAvg"
attr unit  cqi
scalar Tests.eNodeB.nic.mac 	cqiDlTxDiv1:lteAvg 	14.992
attr source  cqiDlTxDiv1
attr title  "Average cqi TxDiv band 1, lteAvg"
attr unit  cqi
scalar Tests.eNodeB.nic.mac 	cqiDlTxDiv1:lteAvg 	14.992666666667
attr source  cqiDlTxDiv1
attr title  "Average cqi TxDiv band 1, lteAvg"
attr unit  cqi
scalar Tests.eNodeB.nic.mac 	cqiDlTxDiv1:lteAvg 	14.588
attr source  cqiDlTxDiv1
attr title  "Average cqi TxDiv band 1, lteAvg"
attr unit  cqi
scalar Tests.eNodeB.nic.mac 	cqiDlTxDiv1:lteAvg 	14.935
attr source  cqiDlTxDiv1
attr title  "Average cqi TxDiv band 1, lteAvg"
attr unit  cqi
scalar Tests.eNodeB.nic.mac 	cqiDlTxDiv1:lteAvg 	14.946
attr source  cqiDlTxDiv1
attr title  "Average cqi TxDiv band 1, lteAvg"
attr unit  cqi
scalar Tests.eNodeB.nic.mac 	cqiDlTxDiv1:lteAvg 	15
attr source  cqiDlTxDiv1
attr title  "Average cqi TxDiv band 1, lteAvg"
attr unit  cqi
scalar Tests.eNodeB.nic.mac 	cqiDlTxDiv1:lteAvg 	14.987666666667
attr source  cqiDlTxDiv1
attr title  "Average cqi TxDiv band 1, lteAvg"
attr unit  cqi
scalar Tests.eNodeB.nic.mac 	cqiDlTxDiv1:lteAvg 	13.09
attr source  cqiDlTxDiv1
attr title  "Average cqi TxDiv band 1, lteAvg"
attr unit  cqi
scalar Tests.eNodeB.nic.mac 	cqiDlTxDiv1:lteAvg 	14.976666666667
attr source  cqiDlTxDiv1
attr title  "Average cqi TxDiv band 1, lteAvg"
attr unit  cqi
scalar Tests.eNodeB.nic.mac 	cqiDlTxDiv1:lteAvg 	12.093666666667
attr source  cqiDlTxDiv1
attr title  "Average cqi TxDiv band 1, lteAvg"
attr unit  cqi
scalar Tests.eNodeB.nic.mac 	cqiDlTxDiv0:lteAvg 	7.3326666666667
attr source  cqiDlTxDiv0
attr title  "Average cqi TxDiv band 0, lteAvg"
attr unit  cqi
scalar Tests.eNodeB.nic.mac 	cqiDlTxDiv0:lteAvg 	15
attr source  cqiDlTxDiv0
attr title  "Average cqi TxDiv band 0, lteAvg"
attr unit  cqi
scalar Tests.eNodeB.nic.mac 	cqiDlTxDiv0:lteAvg 	14.995333333333
attr source  cqiDlTxDiv0
attr title  "Average cqi TxDiv band 0, lteAvg"
attr unit  cqi
scalar Tests.eNodeB.nic.mac 	cqiDlTxDiv0:lteAvg 	14.907333333333
attr source  cqiDlTxDiv0
attr title  "Average cqi TxDiv band 0, lteAvg"
attr unit  cqi
scalar Tests.eNodeB.nic.mac 	cqiDlTxDiv0:lteAvg 	14.987333333333
attr source  cqiDlTxDiv0
attr title  "Average cqi TxDiv band 0, lteAvg"
attr unit  cqi
scalar Tests.eNodeB.nic.mac 	cqiDlTxDiv0:lteAvg 	14.979333333333
attr source  cqiDlTxDiv0
attr title  "Average cqi TxDiv band 0, lteAvg"
attr unit  cqi
scalar Tests.eNodeB.nic.mac 	cqiDlTxDiv0:lteAvg 	14.972333333333
attr source  cqiDlTxDiv0
attr title  "Average cqi TxDiv band 0, lteAvg"
attr unit  cqi
scalar Tests.eNodeB.nic.mac 	cqiDlTxDiv0:lteAvg 	15
attr source  cqiDlTxDiv0
attr title  "Average cqi TxDiv band 0, lteAvg"
attr unit  cqi
scalar Tests.eNodeB.nic.mac 	cqiDlTxDiv0:lteAvg 	14.999333333333
attr source  cqiDlTxDiv0
attr title  "Average cqi TxDiv band 0, lteAvg"
attr unit  cqi
scalar Tests.eNodeB.nic.mac 	cqiDlTxDiv0:lteAvg 	14.959
attr source  cqiDlTxDiv0
attr title  "Average cqi TxDiv band 0, lteAvg"
attr unit  cqi
scalar Tests.eNodeB.nic.mac 	cqiDlTxDiv0:lteAvg 	13.038333333333
attr source  cqiDlTxDiv0
attr title  "Average cqi TxDiv band 0, lteAvg"
attr unit  cqi
scalar Tests.eNodeB.nic.mac 	cqiDlTxDiv0:lteAvg 	13.203
attr source  cqiDlTxDiv0
attr title  "Average cqi TxDiv band 0, lteAvg"
attr unit  cqi
scalar Tests.eNodeB.nic.mac 	cqiDlTxDiv0:lteAvg 	14.996333333333
attr source  cqiDlTxDiv0
attr title  "Average cqi TxDiv band 0, lteAvg"
attr unit  cqi
scalar Tests.eNodeB.nic.mac 	cqiDlTxDiv0:lteAvg 	15
attr source  cqiDlTxDiv0
attr title  "Average cqi TxDiv band 0, lteAvg"
attr unit  cqi
scalar Tests.eNodeB.nic.mac 	cqiDlTxDiv0:lteAvg 	14.970666666667
attr source  cqiDlTxDiv0
attr title  "Average cqi TxDiv band 0, lteAvg"
attr unit  cqi
scalar Tests.eNodeB.nic.mac 	cqiDlTxDiv0:lteAvg 	14.999333333333
attr source  cqiDlTxDiv0
attr title  "Average cqi TxDiv band 0, lteAvg"
attr unit  cqi
scalar Tests.eNodeB.nic.mac 	cqiDlTxDiv0:lteAvg 	15
attr source  cqiDlTxDiv0
attr title  "Average cqi TxDiv band 0, lteAvg"
attr unit  cqi
scalar Tests.eNodeB.nic.mac 	cqiDlTxDiv0:lteAvg 	14.949333333333
attr source  cqiDlTxDiv0
attr title  "Average cqi TxDiv band 0, lteAvg"
attr unit  cqi
scalar Tests.eNodeB.nic.mac 	cqiDlTxDiv0:lteAvg 	14.994
attr source  cqiDlTxDiv0
attr title  "Average cqi TxDiv band 0, lteAvg"
attr unit  cqi
scalar Tests.eNodeB.nic.mac 	cqiDlTxDiv0:lteAvg 	14.999
attr source  cqiDlTxDiv0
attr title  "Average cqi TxDiv band 0, lteAvg"
attr unit  cqi
scalar Tests.eNodeB.nic.mac 	cqiDlTxDiv0:lteAvg 	14.991333333333
attr source  cqiDlTxDiv0
attr title  "Average cqi TxDiv band 0, lteAvg"
attr unit  cqi
scalar Tests.eNodeB.nic.mac 	cqiDlTxDiv0:lteAvg 	14.992666666667
attr source  cqiDlTxDiv0
attr title  "Average cqi TxDiv band 0, lteAvg"
attr unit  cqi
scalar Tests.eNodeB.nic.mac 	cqiDlTxDiv0:lteAvg 	14.272333333333
attr source  cqiDlTxDiv0
attr title  "Average cqi TxDiv band 0, lteAvg"
attr unit  cqi
scalar Tests.eNodeB.nic.mac 	cqiDlTxDiv0:lteAvg 	14.953666666667
attr source  cqiDlTxDiv0
attr title  "Average cqi TxDiv band 0, lteAvg"
attr unit  cqi
scalar Tests.eNodeB.nic.mac 	cqiDlTxDiv0:lteAvg 	8.198
attr source  cqiDlTxDiv0
attr title  "Average cqi TxDiv band 0, lteAvg"
attr unit  cqi
scalar Tests.eNodeB.nic.mac 	cqiDlTxDiv0:lteAvg 	14.999666666667
attr source  cqiDlTxDiv0
attr title  "Average cqi TxDiv band 0, lteAvg"
attr unit  cqi
scalar Tests.eNodeB.nic.mac 	cqiDlTxDiv0:lteAvg 	14.994
attr source  cqiDlTxDiv0
attr title  "Average cqi TxDiv band 0, lteAvg"
attr unit  cqi
scalar Tests.eNodeB.nic.mac 	cqiDlTxDiv0:lteAvg 	14.34
attr source  cqiDlTxDiv0
attr title  "Average cqi TxDiv band 0, lteAvg"
attr unit  cqi
scalar Tests.eNodeB.nic.mac 	cqiDlTxDiv0:lteAvg 	14.987333333333
attr source  cqiDlTxDiv0
attr title  "Average cqi TxDiv band 0, lteAvg"
attr unit  cqi
scalar Tests.eNodeB.nic.mac 	cqiDlTxDiv0:lteAvg 	14.950333333333
attr source  cqiDlTxDiv0
attr title  "Average cqi TxDiv band 0, lteAvg"
attr unit  cqi
scalar Tests.eNodeB.nic.mac 	cqiDlSpmux4:lteAvg 	2.8706666666667
attr source  cqiDlSpmux4
attr title  "Average cqi Spmux band 4, lteAvg"
attr unit  cqi
scalar Tests.eNodeB.nic.mac 	cqiDlSpmux4:lteAvg 	13.005333333333
attr source  cqiDlSpmux4
attr title  "Average cqi Spmux band 4, lteAvg"
attr unit  cqi
scalar Tests.eNodeB.nic.mac 	cqiDlSpmux4:lteAvg 	13.737666666667
attr source  cqiDlSpmux4
attr title  "Average cqi Spmux band 4, lteAvg"
attr unit  cqi
scalar Tests.eNodeB.nic.mac 	cqiDlSpmux4:lteAvg 	7.1456666666667
attr source  cqiDlSpmux4
attr title  "Average cqi Spmux band 4, lteAvg"
attr unit  cqi
scalar Tests.eNodeB.nic.mac 	cqiDlSpmux4:lteAvg 	11.181333333333
attr source  cqiDlSpmux4
attr title  "Average cqi Spmux band 4, lteAvg"
attr unit  cqi
scalar Tests.eNodeB.nic.mac 	cqiDlSpmux4:lteAvg 	7.698
attr source  cqiDlSpmux4
attr title  "Average cqi Spmux band 4, lteAvg"
attr unit  cqi
scalar Tests.eNodeB.nic.mac 	cqiDlSpmux4:lteAvg 	7.1823333333333
attr source  cqiDlSpmux4
attr title  "Average cqi Spmux band 4, lteAvg"
attr unit  cqi
scalar Tests.eNodeB.nic.mac 	cqiDlSpmux4:lteAvg 	14.982
attr source  cqiDlSpmux4
attr title  "Average cqi Spmux band 4, lteAvg"
attr unit  cqi
scalar Tests.eNodeB.nic.mac 	cqiDlSpmux4:lteAvg 	12.414333333333
attr source  cqiDlSpmux4
attr title  "Average cqi Spmux band 4, lteAvg"
attr unit  cqi
scalar Tests.eNodeB.nic.mac 	cqiDlSpmux4:lteAvg 	6.4976666666667
attr source  cqiDlSpmux4
attr title  "Average cqi Spmux band 4, lteAvg"
attr unit  cqi
scalar Tests.eNodeB.nic.mac 	cqiDlSpmux4:lteAvg 	7.773
attr source  cqiDlSpmux4
attr title  "Average cqi Spmux band 4, lteAvg"
attr unit  cqi
scalar Tests.eNodeB.nic.mac 	cqiDlSpmux4:lteAvg 	10.128333333333
attr source  cqiDlSpmux4
attr title  "Average cqi Spmux band 4, lteAvg"
attr unit  cqi
scalar Tests.eNodeB.nic.mac 	cqiDlSpmux4:lteAvg 	11.910666666667
attr source  cqiDlSpmux4
attr title  "Average cqi Spmux band 4, lteAvg"
attr unit  cqi
scalar Tests.eNodeB.nic.mac 	cqiDlSpmux4:lteAvg 	14.952666666667
attr source  cqiDlSpmux4
attr title  "Average cqi Spmux band 4, lteAvg"
attr unit  cqi
scalar Tests.eNodeB.nic.mac 	cqiDlSpmux4:lteAvg 	8.6633333333333
attr source  cqiDlSpmux4
attr title  "Average cqi Spmux band 4, lteAvg"
attr unit  cqi
scalar Tests.eNodeB.nic.mac 	cqiDlSpmux4:lteAvg 	13.453333333333
attr source  cqiDlSpmux4
attr title  "Average cqi Spmux band 4, lteAvg"
attr unit  cqi
scalar Tests.eNodeB.nic.mac 	cqiDlSpmux4:lteAvg 	14.998666666667
attr source  cqiDlSpmux4
attr title  "Average cqi Spmux band 4, lteAvg"
attr unit  cqi
scalar Tests.eNodeB.nic.mac 	cqiDlSpmux4:lteAvg 	7.456
attr source  cqiDlSpmux4
attr title  "Average cqi Spmux band 4, lteAvg"
attr unit  cqi
scalar Tests.eNodeB.nic.mac 	cqiDlSpmux4:lteAvg 	12.637666666667
attr source  cqiDlSpmux4
attr title  "Average cqi Spmux band 4, lteAvg"
attr unit  cqi
scalar Tests.eNodeB.nic.mac 	cqiDlSpmux4:lteAvg 	10.145666666667
attr source  cqiDlSpmux4
attr title  "Average cqi Spmux band 4, lteAvg"
attr unit  cqi
scalar Tests.eNodeB.nic.mac 	cqiDlSpmux4:lteAvg 	10.860666666667
attr source  cqiDlSpmux4
attr title  "Average cqi Spmux band 4, lteAvg"
attr unit  cqi
scalar Tests.eNodeB.nic.mac 	cqiDlSpmux4:lteAvg 	11.049666666667
attr source  cqiDlSpmux4
attr title  "Average cqi Spmux band 4, lteAvg"
attr unit  cqi
scalar Tests.eNodeB.nic.mac 	cqiDlSpmux4:lteAvg 	7.8233333333333
attr source  cqiDlSpmux4
attr title  "Average cqi Spmux band 4, lteAvg"
attr unit  cqi
scalar Tests.eNodeB.nic.mac 	cqiDlSpmux4:lteAvg 	10.713666666667
attr source  cqiDlSpmux4
attr title  "Average cqi Spmux band 4, lteAvg"
attr unit  cqi
scalar Tests.eNodeB.nic.mac 	cqiDlSpmux4:lteAvg 	6.2153333333333
attr source  cqiDlSpmux4
attr title  "Average cqi Spmux band 4, lteAvg"
attr unit  cqi
scalar Tests.eNodeB.nic.mac 	cqiDlSpmux4:lteAvg 	14.938333333333
attr source  cqiDlSpmux4
attr title  "Average cqi Spmux band 4, lteAvg"
attr unit  cqi
scalar Tests.eNodeB.nic.mac 	cqiDlSpmux4:lteAvg 	11.966
attr source  cqiDlSpmux4
attr title  "Average cqi Spmux band 4, lteAvg"
attr unit  cqi
scalar Tests.eNodeB.nic.mac 	cqiDlSpmux4:lteAvg 	9.6396666666667
attr source  cqiDlSpmux4
attr title  "Average cqi Spmux band 4, lteAvg"
attr unit  cqi
scalar Tests.eNodeB.nic.mac 	cqiDlSpmux4:lteAvg 	11.438666666667
attr source  cqiDlSpmux4
attr title  "Average cqi Spmux band 4, lteAvg"
attr unit  cqi
scalar Tests.eNodeB.nic.mac 	cqiDlSpmux4:lteAvg 	10.729666666667
attr source  cqiDlSpmux4
attr title  "Average cqi Spmux band 4, lteAvg"
attr unit  cqi
scalar Tests.eNodeB.nic.mac 	cqiDlSpmux3:lteAvg 	4.787
attr source  cqiDlSpmux3
attr title  "Average cqi Spmux band 3, lteAvg"
attr unit  cqi
scalar Tests.eNodeB.nic.mac 	cqiDlSpmux3:lteAvg 	14.814
attr source  cqiDlSpmux3
attr title  "Average cqi Spmux band 3, lteAvg"
attr unit  cqi
scalar Tests.eNodeB.nic.mac 	cqiDlSpmux3:lteAvg 	13.879333333333
attr source  cqiDlSpmux3
attr title  "Average cqi Spmux band 3, lteAvg"
attr unit  cqi
scalar Tests.eNodeB.nic.mac 	cqiDlSpmux3:lteAvg 	5.0546666666667
attr source  cqiDlSpmux3
attr title  "Average cqi Spmux band 3, lteAvg"
attr unit  cqi
scalar Tests.eNodeB.nic.mac 	cqiDlSpmux3:lteAvg 	9.552
attr source  cqiDlSpmux3
attr title  "Average cqi Spmux band 3, lteAvg"
attr unit  cqi
scalar Tests.eNodeB.nic.mac 	cqiDlSpmux3:lteAvg 	10.991333333333
attr source  cqiDlSpmux3
attr title  "Average cqi Spmux band 3, lteAvg"
attr unit  cqi
scalar Tests.eNodeB.nic.mac 	cqiDlSpmux3:lteAvg 	5.5343333333333
attr source  cqiDlSpmux3
attr title  "Average cqi Spmux band 3, lteAvg"
attr unit  cqi
scalar Tests.eNodeB.nic.mac 	cqiDlSpmux3:lteAvg 	14.981
attr source  cqiDlSpmux3
attr title  "Average cqi Spmux band 3, lteAvg"
attr unit  cqi
scalar Tests.eNodeB.nic.mac 	cqiDlSpmux3:lteAvg 	7.6333333333333
attr source  cqiDlSpmux3
attr title  "Average cqi Spmux band 3, lteAvg"
attr unit  cqi
scalar Tests.eNodeB.nic.mac 	cqiDlSpmux3:lteAvg 	4.1916666666667
attr source  cqiDlSpmux3
attr title  "Average cqi Spmux band 3, lteAvg"
attr unit  cqi
scalar Tests.eNodeB.nic.mac 	cqiDlSpmux3:lteAvg 	6.6683333333333
attr source  cqiDlSpmux3
attr title  "Average cqi Spmux band 3, lteAvg"
attr unit  cqi
scalar Tests.eNodeB.nic.mac 	cqiDlSpmux3:lteAvg 	5.3043333333333
attr source  cqiDlSpmux3
attr title  "Average cqi Spmux band 3, lteAvg"
attr unit  cqi
scalar Tests.eNodeB.nic.mac 	cqiDlSpmux3:lteAvg 	14.646333333333
attr source  cqiDlSpmux3
attr title  "Average cqi Spmux band 3, lteAvg"
attr unit  cqi
scalar Tests.eNodeB.nic.mac 	cqiDlSpmux3:lteAvg 	14.957666666667
attr source  cqiDlSpmux3
attr title  "Average cqi Spmux band 3, lteAvg"
attr unit  cqi
scalar Tests.eNodeB.nic.mac 	cqiDlSpmux3:lteAvg 	9.532
attr source  cqiDlSpmux3
attr title  "Average cqi Spmux band 3, lteAvg"
attr unit  cqi
scalar Tests.eNodeB.nic.mac 	cqiDlSpmux3:lteAvg 	13.457
attr source  cqiDlSpmux3
attr title  "Average cqi Spmux band 3, lteAvg"
attr unit  cqi
scalar Tests.eNodeB.nic.mac 	cqiDlSpmux3:lteAvg 	14.998333333333
attr source  cqiDlSpmux3
attr title  "Average cqi Spmux band 3, lteAvg"
attr unit  cqi
scalar Tests.eNodeB.nic.mac 	cqiDlSpmux3:lteAvg 	8.1886666666667
attr source  cqiDlSpmux3
attr title  "Average cqi Spmux band 3, lteAvg"
attr unit  cqi
scalar Tests.eNodeB.nic.mac 	cqiDlSpmux3:lteAvg 	9.1433333333333
attr source  cqiDlSpmux3
attr title  "Average cqi Spmux band 3, lteAvg"
attr unit  cqi
scalar Tests.eNodeB.nic.mac 	cqiDlSpmux3:lteAvg 	13.973
attr source  cqiDlSpmux3
attr title  "Average cqi Spmux band 3, lteAvg"
attr unit  cqi
scalar Tests.eNodeB.nic.mac 	cqiDlSpmux3:lteAvg 	13.456
attr source  cqiDlSpmux3
attr title  "Average cqi Spmux band 3, lteAvg"
attr unit  cqi
scalar Tests.eNodeB.nic.mac 	cqiDlSpmux3:lteAvg 	9.251
attr source  cqiDlSpmux3
attr title  "Average cqi Spmux band 3, lteAvg"
attr unit  cqi
scalar Tests.eNodeB.nic.mac 	cqiDlSpmux3:lteAvg 	8.1963333333333
attr source  cqiDlSpmux3
attr title  "Average cqi Spmux band 3, lteAvg"
attr unit  cqi
scalar Tests.eNodeB.nic.mac 	cqiDlSpmux3:lteAvg 	8.3996666666667
attr source  cqiDlSpmux3
attr title  "Average cqi Spmux band 3, lteAvg"
attr unit  cqi
scalar Tests.eNodeB.nic.mac 	cqiDlSpmux3:lteAvg 	7.4703333333333
attr source  cqiDlSpmux3
attr title  "Average cqi Spmux band 3, lteAvg"
attr unit  cqi
scalar Tests.eNodeB.nic.mac 	cqiDlSpmux3:lteAvg 	12.985333333333
attr source  cqiDlSpmux3
attr title  "Average cqi Spmux band 3, lteAvg"
attr unit  cqi
scalar Tests.eNodeB.nic.mac 	cqiDlSpmux3:lteAvg 	13.119666666667
attr source  cqiDlSpmux3
attr title  "Average cqi Spmux band 3, lteAvg"
attr unit  cqi
scalar Tests.eNodeB.nic.mac 	cqiDlSpmux3:lteAvg 	3.9656666666667
attr source  cqiDlSpmux3
attr title  "Average cqi Spmux band 3, lteAvg"
attr unit  cqi
scalar Tests.eNodeB.nic.mac 	cqiDlSpmux3:lteAvg 	9.2126666666667
attr source  cqiDlSpmux3
attr title  "Average cqi Spmux band 3, lteAvg"
attr unit  cqi
scalar Tests.eNodeB.nic.mac 	cqiDlSpmux3:lteAvg 	7.371
attr source  cqiDlSpmux3
attr title  "Average cqi Spmux band 3, lteAvg"
attr unit  cqi
scalar Tests.eNodeB.nic.mac 	cqiDlSpmux2:lteAvg 	4.6486666666667
attr source  cqiDlSpmux2
attr title  "Average cqi Spmux band 2, lteAvg"
attr unit  cqi
scalar Tests.eNodeB.nic.mac 	cqiDlSpmux2:lteAvg 	13.001666666667
attr source  cqiDlSpmux2
attr title  "Average cqi Spmux band 2, lteAvg"
attr unit  cqi
scalar Tests.eNodeB.nic.mac 	cqiDlSpmux2:lteAvg 	12.117
attr source  cqiDlSpmux2
attr title  "Average cqi Spmux band 2, lteAvg"
attr unit  cqi
scalar Tests.eNodeB.nic.mac 	cqiDlSpmux2:lteAvg 	4.1
attr source  cqiDlSpmux2
attr title  "Average cqi Spmux band 2, lteAvg"
attr unit  cqi
scalar Tests.eNodeB.nic.mac 	cqiDlSpmux2:lteAvg 	14.360666666667
attr source  cqiDlSpmux2
attr title  "Average cqi Spmux band 2, lteAvg"
attr unit  cqi
scalar Tests.eNodeB.nic.mac 	cqiDlSpmux2:lteAvg 	13.652
attr source  cqiDlSpmux2
attr title  "Average cqi Spmux band 2, lteAvg"
attr unit  cqi
scalar Tests.eNodeB.nic.mac 	cqiDlSpmux2:lteAvg 	9.648
attr source  cqiDlSpmux2
attr title  "Average cqi Spmux band 2, lteAvg"
attr unit  cqi
scalar Tests.eNodeB.nic.mac 	cqiDlSpmux2:lteAvg 	14.990333333333
attr source  cqiDlSpmux2
attr title  "Average cqi Spmux band 2, lteAvg"
attr unit  cqi
scalar Tests.eNodeB.nic.mac 	cqiDlSpmux2:lteAvg 	7.334
attr source  cqiDlSpmux2
attr title  "Average cqi Spmux band 2, lteAvg"
attr unit  cqi
scalar Tests.eNodeB.nic.mac 	cqiDlSpmux2:lteAvg 	10.902333333333
attr source  cqiDlSpmux2
attr title  "Average cqi Spmux band 2, lteAvg"
attr unit  cqi
scalar Tests.eNodeB.nic.mac 	cqiDlSpmux2:lteAvg 	7.78
attr source  cqiDlSpmux2
attr title  "Average cqi Spmux band 2, lteAvg"
attr unit  cqi
scalar Tests.eNodeB.nic.mac 	cqiDlSpmux2:lteAvg 	12.086333333333
attr source  cqiDlSpmux2
attr title  "Average cqi Spmux band 2, lteAvg"
attr unit  cqi
scalar Tests.eNodeB.nic.mac 	cqiDlSpmux2:lteAvg 	13.083333333333
attr source  cqiDlSpmux2
attr title  "Average cqi Spmux band 2, lteAvg"
attr unit  cqi
scalar Tests.eNodeB.nic.mac 	cqiDlSpmux2:lteAvg 	14.947333333333
attr source  cqiDlSpmux2
attr title  "Average cqi Spmux band 2, lteAvg"
attr unit  cqi
scalar Tests.eNodeB.nic.mac 	cqiDlSpmux2:lteAvg 	8.441
attr source  cqiDlSpmux2
attr title  "Average cqi Spmux band 2, lteAvg"
attr unit  cqi
scalar Tests.eNodeB.nic.mac 	cqiDlSpmux2:lteAvg 	9.5646666666667
attr source  cqiDlSpmux2
attr title  "Average cqi Spmux band 2, lteAvg"
attr unit  cqi
scalar Tests.eNodeB.nic.mac 	cqiDlSpmux2:lteAvg 	14.999333333333
attr source  cqiDlSpmux2
attr title  "Average cqi Spmux band 2, lteAvg"
attr unit  cqi
scalar Tests.eNodeB.nic.mac 	cqiDlSpmux2:lteAvg 	5.5706666666667
attr source  cqiDlSpmux2
attr title  "Average cqi Spmux band 2, lteAvg"
attr unit  cqi
scalar Tests.eNodeB.nic.mac 	cqiDlSpmux2:lteAvg 	9.147
attr source  cqiDlSpmux2
attr title  "Average cqi Spmux band 2, lteAvg"
attr unit  cqi
scalar Tests.eNodeB.nic.mac 	cqiDlSpmux2:lteAvg 	14.942666666667
attr source  cqiDlSpmux2
attr title  "Average cqi Spmux band 2, lteAvg"
attr unit  cqi
scalar Tests.eNodeB.nic.mac 	cqiDlSpmux2:lteAvg 	13.099
attr source  cqiDlSpmux2
attr title  "Average cqi Spmux band 2, lteAvg"
attr unit  cqi
scalar Tests.eNodeB.nic.mac 	cqiDlSpmux2:lteAvg 	14.305666666667
attr source  cqiDlSpmux2
attr title  "Average cqi Spmux band 2, lteAvg"
attr unit  cqi
scalar Tests.eNodeB.nic.mac 	cqiDlSpmux2:lteAvg 	3.5176666666667
attr source  cqiDlSpmux2
attr title  "Average cqi Spmux band 2, lteAvg"
attr unit  cqi
scalar Tests.eNodeB.nic.mac 	cqiDlSpmux2:lteAvg 	4.1036666666667
attr source  cqiDlSpmux2
attr title  "Average cqi Spmux band 2, lteAvg"
attr unit  cqi
scalar Tests.eNodeB.nic.mac 	cqiDlSpmux2:lteAvg 	5.6893333333333
attr source  cqiDlSpmux2
attr title  "Average cqi Spmux band 2, lteAvg"
attr unit  cqi
scalar Tests.eNodeB.nic.mac 	cqiDlSpmux2:lteAvg 	12.185
attr source  cqiDlSpmux2
attr title  "Average cqi Spmux band 2, lteAvg"
attr unit  cqi
scalar Tests.eNodeB.nic.mac 	cqiDlSpmux2:lteAvg 	12.204666666667
attr source  cqiDlSpmux2
attr title  "Average cqi Spmux band 2, lteAvg"
attr unit  cqi
scalar Tests.eNodeB.nic.mac 	cqiDlSpmux2:lteAvg 	5.626
attr source  cqiDlSpmux2
attr title  "Average cqi Spmux band 2, lteAvg"
attr unit  cqi
scalar Tests.eNodeB.nic.mac 	cqiDlSpmux2:lteAvg 	13.532333333333
attr source  cqiDlSpmux2
attr title  "Average cqi Spmux band 2, lteAvg"
attr unit  cqi
scalar Tests.eNodeB.nic.mac 	cqiDlSpmux2:lteAvg 	4.431
attr source  cqiDlSpmux2
attr title  "Average cqi Spmux band 2, lteAvg"
attr unit  cqi
scalar Tests.eNodeB.nic.mac 	cqiDlSpmux1:lteAvg 	3.5526666666667
attr source  cqiDlSpmux1
attr title  "Average cqi Spmux band 1, lteAvg"
attr unit  cqi
scalar Tests.eNodeB.nic.mac 	cqiDlSpmux1:lteAvg 	12.551333333333
attr source  cqiDlSpmux1
attr title  "Average cqi Spmux band 1, lteAvg"
attr unit  cqi
scalar Tests.eNodeB.nic.mac 	cqiDlSpmux1:lteAvg 	10.348333333333
attr source  cqiDlSpmux1
attr title  "Average cqi Spmux band 1, lteAvg"
attr unit  cqi
scalar Tests.eNodeB.nic.mac 	cqiDlSpmux1:lteAvg 	9.0803333333333
attr source  cqiDlSpmux1
attr title  "Average cqi Spmux band 1, lteAvg"
attr unit  cqi
scalar Tests.eNodeB.nic.mac 	cqiDlSpmux1:lteAvg 	11.965
attr source  cqiDlSpmux1
attr title  "Average cqi Spmux band 1, lteAvg"
attr unit  cqi
scalar Tests.eNodeB.nic.mac 	cqiDlSpmux1:lteAvg 	8.0786666666667
attr source  cqiDlSpmux1
attr title  "Average cqi Spmux band 1, lteAvg"
attr unit  cqi
scalar Tests.eNodeB.nic.mac 	cqiDlSpmux1:lteAvg 	4.4256666666667
attr source  cqiDlSpmux1
attr title  "Average cqi Spmux band 1, lteAvg"
attr unit  cqi
scalar Tests.eNodeB.nic.mac 	cqiDlSpmux1:lteAvg 	14.975333333333
attr source  cqiDlSpmux1
attr title  "Average cqi Spmux band 1, lteAvg"
attr unit  cqi
scalar Tests.eNodeB.nic.mac 	cqiDlSpmux1:lteAvg 	14.680666666667
attr source  cqiDlSpmux1
attr title  "Average cqi Spmux band 1, lteAvg"
attr unit  cqi
scalar Tests.eNodeB.nic.mac 	cqiDlSpmux1:lteAvg 	5.7306666666667
attr source  cqiDlSpmux1
attr title  "Average cqi Spmux band 1, lteAvg"
attr unit  cqi
scalar Tests.eNodeB.nic.mac 	cqiDlSpmux1:lteAvg 	9.9336666666667
attr source  cqiDlSpmux1
attr title  "Average cqi Spmux band 1, lteAvg"
attr unit  cqi
scalar Tests.eNodeB.nic.mac 	cqiDlSpmux1:lteAvg 	11.826333333333
attr source  cqiDlSpmux1
attr title  "Average cqi Spmux band 1, lteAvg"
attr unit  cqi
scalar Tests.eNodeB.nic.mac 	cqiDlSpmux1:lteAvg 	9.4433333333333
attr source  cqiDlSpmux1
attr title  "Average cqi Spmux band 1, lteAvg"
attr unit  cqi
scalar Tests.eNodeB.nic.mac 	cqiDlSpmux1:lteAvg 	14.949
attr source  cqiDlSpmux1
attr title  "Average cqi Spmux band 1, lteAvg"
attr unit  cqi
scalar Tests.eNodeB.nic.mac 	cqiDlSpmux1:lteAvg 	6.8786666666667
attr source  cqiDlSpmux1
attr title  "Average cqi Spmux band 1, lteAvg"
attr unit  cqi
scalar Tests.eNodeB.nic.mac 	cqiDlSpmux1:lteAvg 	14.036666666667
attr source  cqiDlSpmux1
attr title  "Average cqi Spmux band 1, lteAvg"
attr unit  cqi
scalar Tests.eNodeB.nic.mac 	cqiDlSpmux1:lteAvg 	15
attr source  cqiDlSpmux1
attr title  "Average cqi Spmux band 1, lteAvg"
attr unit  cqi
scalar Tests.eNodeB.nic.mac 	cqiDlSpmux1:lteAvg 	8.4976666666667
attr source  cqiDlSpmux1
attr title  "Average cqi Spmux band 1, lteAvg"
attr unit  cqi
scalar Tests.eNodeB.nic.mac 	cqiDlSpmux1:lteAvg 	10.072666666667
attr source  cqiDlSpmux1
attr title  "Average cqi Spmux band 1, lteAvg"
attr unit  cqi
scalar Tests.eNodeB.nic.mac 	cqiDlSpmux1:lteAvg 	14.940333333333
attr source  cqiDlSpmux1
attr title  "Average cqi Spmux band 1, lteAvg"
attr unit  cqi
scalar Tests.eNodeB.nic.mac 	cqiDlSpmux1:lteAvg 	11.909
attr source  cqiDlSpmux1
attr title  "Average cqi Spmux band 1, lteAvg"
attr unit  cqi
scalar Tests.eNodeB.nic.mac 	cqiDlSpmux1:lteAvg 	10.517666666667
attr source  cqiDlSpmux1
attr title  "Average cqi Spmux band 1, lteAvg"
attr unit  cqi
scalar Tests.eNodeB.nic.mac 	cqiDlSpmux1:lteAvg 	6.151
attr source  cqiDlSpmux1
attr title  "Average cqi Spmux band 1, lteAvg"
attr unit  cqi
scalar Tests.eNodeB.nic.mac 	cqiDlSpmux1:lteAvg 	7.6756666666667
attr source  cqiDlSpmux1
attr title  "Average cqi Spmux band 1, lteAvg"
attr unit  cqi
scalar Tests.eNodeB.nic.mac 	cqiDlSpmux1:lteAvg 	7.2116666666667
attr source  cqiDlSpmux1
attr title  "Average cqi Spmux band 1, lteAvg"
attr unit  cqi
scalar Tests.eNodeB.nic.mac 	cqiDlSpmux1:lteAvg 	9.7046666666667
attr source  cqiDlSpmux1
attr title  "Average cqi Spmux band 1, lteAvg"
attr unit  cqi
scalar Tests.eNodeB.nic.mac 	cqiDlSpmux1:lteAvg 	13.139666666667
attr source  cqiDlSpmux1
attr title  "Average cqi Spmux band 1, lteAvg"
attr unit  cqi
scalar Tests.eNodeB.nic.mac 	cqiDlSpmux1:lteAvg 	4.9313333333333
attr source  cqiDlSpmux1
attr title  "Average cqi Spmux band 1, lteAvg"
attr unit  cqi
scalar Tests.eNodeB.nic.mac 	cqiDlSpmux1:lteAvg 	9.3073333333333
attr source  cqiDlSpmux1
attr title  "Average cqi Spmux band 1, lteAvg"
attr unit  cqi
scalar Tests.eNodeB.nic.mac 	cqiDlSpmux1:lteAvg 	4.751
attr source  cqiDlSpmux1
attr title  "Average cqi Spmux band 1, lteAvg"
attr unit  cqi
scalar Tests.eNodeB.nic.mac 	cqiDlSpmux0:lteAvg 	2.1903333333333
attr source  cqiDlSpmux0
attr title  "Average cqi Spmux band 0, lteAvg"
attr unit  cqi
scalar Tests.eNodeB.nic.mac 	cqiDlSpmux0:lteAvg 	13.879666666667
attr source  cqiDlSpmux0
attr title  "Average cqi Spmux band 0, lteAvg"
attr unit  cqi
scalar Tests.eNodeB.nic.mac 	cqiDlSpmux0:lteAvg 	12.317333333333
attr source  cqiDlSpmux0
attr title  "Average cqi Spmux band 0, lteAvg"
attr unit  cqi
scalar Tests.eNodeB.nic.mac 	cqiDlSpmux0:lteAvg 	7.1466666666667
attr source  cqiDlSpmux0
attr title  "Average cqi Spmux band 0, lteAvg"
attr unit  cqi
scalar Tests.eNodeB.nic.mac 	cqiDlSpmux0:lteAvg 	8.4216666666667
attr source  cqiDlSpmux0
attr title  "Average cqi Spmux band 0, lteAvg"
attr unit  cqi
scalar Tests.eNodeB.nic.mac 	cqiDlSpmux0:lteAvg 	10.514333333333
attr source  cqiDlSpmux0
[...]
attr title  "Harq Error Rate Dl, mean"
attr unit  ""
scalar Tests.ue[27].nic.mac 	macPacketLossDl:mean 	-nan
attr source  macPacketLossDl
attr title  "Mac Packet Loss, mean"
attr unit  ""
scalar Tests.ue[27].nic.mac 	macPacketLossUl:mean 	-nan
attr source  macPacketLossUl
attr title  "Mac Packet Loss, mean"
attr unit  ""
scalar Tests.ue[27].nic.mac 	macCellPacketLossUl:mean 	-nan
attr source  macCellPacketLossUl
attr title  "Mac Cell Packet Loss, mean"
attr unit  ""
scalar Tests.ue[27].nic.mac 	macCellPacketLossDl:mean 	-nan
attr source  macCellPacketLossDl
attr title  "Mac Cell Packet Loss, mean"
attr unit  ""
scalar Tests.ue[27].nic.mac 	sentPacketToLowerLayer:count 	0
attr interpolationmode  none
attr source  sentPacketToLowerLayer
scalar Tests.ue[27].nic.mac 	sentPacketToLowerLayer:sum(packetBytes) 	0
attr interpolationmode  none
attr source  sentPacketToLowerLayer
scalar Tests.ue[27].nic.mac 	sentPacketToUpperLayer:count 	0
attr interpolationmode  none
attr source  sentPacketToUpperLayer
scalar Tests.ue[27].nic.mac 	sentPacketToUpperLayer:sum(packetBytes) 	0
attr interpolationmode  none
attr source  sentPacketToUpperLayer
scalar Tests.ue[27].nic.mac 	receivedPacketFromLowerLayer:count 	0
attr interpolationmode  none
attr source  receivedPacketFromLowerLayer
scalar Tests.ue[27].nic.mac 	receivedPacketFromLowerLayer:sum(packetBytes) 	0
attr interpolationmode  none
attr source  receivedPacketFromLowerLayer
scalar Tests.ue[27].nic.mac 	receivedPacketFromUpperLayer:count 	0
attr interpolationmode  none
attr source  receivedPacketFromUpperLayer
scalar Tests.ue[27].nic.mac 	receivedPacketFromUpperLayer:sum(packetBytes) 	0
attr interpolationmode  none
attr source  receivedPacketFromUpperLayer
scalar Tests.ue[27].udpApp[0] 	voipReceivedThroughtput:timeavg 	-nan
attr source  voipReceivedThroughtput
attr title  "Throughput received at the application level, timeavg"
attr unit  Bps
scalar Tests.ue[27].udpApp[0] 	voipReceivedThroughtput:mean 	-nan
attr source  voipReceivedThroughtput
attr title  "Throughput received at the application level, mean"
attr unit  Bps
scalar Tests.ue[27].udpApp[0] 	voipReceivedThroughtput:sum 	0
attr source  voipReceivedThroughtput
attr title  "Throughput received at the application level, sum"
attr unit  Bps
scalar Tests.ue[27].udpApp[0] 	voIPTaildropLoss:mean 	-nan
attr source  voIPTaildropLoss
attr title  "VoIP Tail Drop Loss, mean"
attr unit  ratio
scalar Tests.ue[27].udpApp[0] 	voIPMos:mean 	-nan
attr source  voIPMos
attr title  "VoIP Mos Signal, mean"
attr unit  MOS
scalar Tests.ue[27].udpApp[0] 	voIPJitter:mean 	-nan
attr source  voIPJitter
attr title  "VoIP Playout Loss, mean"
attr unit  s
scalar Tests.ue[27].udpApp[0] 	voIPPlayoutLoss:mean 	-nan
attr source  voIPPlayoutLoss
attr title  "VoIP Playout Loss, mean"
attr unit  ratio
scalar Tests.ue[27].udpApp[0] 	voIPPlayoutDelay:mean 	-nan
attr source  voIPPlayoutDelay
attr title  "VoIP Playout Delay, mean"
attr unit  s
scalar Tests.ue[27].udpApp[0] 	voIPFrameDelay:mean 	-nan
attr source  voIPFrameDelay
attr title  "VoIP Frame Delay, mean"
attr unit  s
scalar Tests.ue[27].udpApp[0] 	voIPFrameLoss:mean 	-nan
attr source  voIPFrameLoss
attr title  "VoIP Frame Loss, mean"
attr unit  ratio
scalar Tests.ue[27].udp 	droppedPkBadChecksum:count 	0
attr interpolationmode  none
attr title  "packets dropped (checksum error), count"
scalar Tests.ue[27].udp 	droppedPkWrongPort:count 	0
attr interpolationmode  none
attr title  "packets dropped (wrong port), count"
scalar Tests.ue[27].udp 	passedUpPk:count 	0
attr interpolationmode  none
attr title  "packets passed up, count"
scalar Tests.ue[27].udp 	rcvdPk:count 	0
attr interpolationmode  none
attr source  rcvdPk
attr title  "packets received, count"
scalar Tests.ue[27].udp 	rcvdPk:sum(packetBytes) 	0
attr interpolationmode  none
attr source  rcvdPk
attr title  "packets received, sum(packetBytes)"
scalar Tests.ue[27].udp 	sentPk:count 	0
attr interpolationmode  none
attr source  sentPk
attr title  "packets sent, count"
scalar Tests.ue[27].udp 	sentPk:sum(packetBytes) 	0
attr interpolationmode  none
attr source  sentPk
attr title  "packets sent, sum(packetBytes)"
scalar Tests.ue[28].networkLayerWIFI.arp 	failedARPResolution:count 	0
attr title  "ARP failed resolutions, count"
scalar Tests.ue[28].networkLayerWIFI.arp 	completedARPResolution:count 	0
attr title  "ARP completed resolutions, count"
scalar Tests.ue[28].networkLayerWIFI.arp 	initiatedARPResolution:count 	0
attr title  "ARP initiated resolutions, count"
scalar Tests.ue[28].networkLayerWIFI.arp 	sentReply:count 	0
attr title  "ARP replies sent, count"
scalar Tests.ue[28].networkLayerWIFI.arp 	sentReq:count 	0
attr title  "ARP request sent, count"
scalar Tests.ue[28].networkLayerLTE.arp 	failedARPResolution:count 	0
attr title  "ARP failed resolutions, count"
scalar Tests.ue[28].networkLayerLTE.arp 	completedARPResolution:count 	0
attr title  "ARP completed resolutions, count"
scalar Tests.ue[28].networkLayerLTE.arp 	initiatedARPResolution:count 	0
attr title  "ARP initiated resolutions, count"
scalar Tests.ue[28].networkLayerLTE.arp 	sentReply:count 	0
attr title  "ARP replies sent, count"
scalar Tests.ue[28].networkLayerLTE.arp 	sentReq:count 	0
attr title  "ARP request sent, count"
scalar Tests.ue[28].nic.pdcpRrc 	sentPacketToLowerLayer:count 	0
attr interpolationmode  none
attr source  sentPacketToLowerLayer
scalar Tests.ue[28].nic.pdcpRrc 	sentPacketToLowerLayer:sum(packetBytes) 	0
attr interpolationmode  none
attr source  sentPacketToLowerLayer
scalar Tests.ue[28].nic.pdcpRrc 	sentPacketToUpperLayer:count 	0
attr interpolationmode  none
attr source  sentPacketToUpperLayer
scalar Tests.ue[28].nic.pdcpRrc 	sentPacketToUpperLayer:sum(packetBytes) 	0
attr interpolationmode  none
attr source  sentPacketToUpperLayer
scalar Tests.ue[28].nic.pdcpRrc 	receivedPacketFromLowerLayer:count 	0
attr interpolationmode  none
attr source  receivedPacketFromLowerLayer
scalar Tests.ue[28].nic.pdcpRrc 	receivedPacketFromLowerLayer:sum(packetBytes) 	0
attr interpolationmode  none
attr source  receivedPacketFromLowerLayer
scalar Tests.ue[28].nic.pdcpRrc 	receivedPacketFromUpperLayer:count 	0
attr interpolationmode  none
attr source  receivedPacketFromUpperLayer
scalar Tests.ue[28].nic.pdcpRrc 	receivedPacketFromUpperLayer:sum(packetBytes) 	0
attr interpolationmode  none
attr source  receivedPacketFromUpperLayer
scalar Tests.ue[28].nic.mac 	measuredItbs:mean 	-nan
attr source  measuredItbs
attr title  "TBS index, mean"
attr unit  ""
scalar Tests.ue[28].nic.mac 	harqErrorRate_4th_Dl:mean 	-nan
attr source  harqErrorRate_4th_Dl
attr title  "Harq Error Rate Dl, mean"
attr unit  ""
scalar Tests.ue[28].nic.mac 	harqErrorRate_4th_Ul:mean 	-nan
attr source  harqErrorRate_4th_Ul
attr title  "Harq Error Rate Dl, mean"
attr unit  ""
scalar Tests.ue[28].nic.mac 	harqErrorRate_3rd_Dl:mean 	-nan
attr source  harqErrorRate_3rd_Dl
attr title  "Harq Error Rate Dl, mean"
attr unit  ""
scalar Tests.ue[28].nic.mac 	harqErrorRate_3rd_Ul:mean 	-nan
attr source  harqErrorRate_3rd_Ul
attr title  "Harq Error Rate Dl, mean"
attr unit  ""
scalar Tests.ue[28].nic.mac 	harqErrorRate_2nd_Dl:mean 	-nan
attr source  harqErrorRate_2nd_Dl
attr title  "Harq Error Rate Dl, mean"
attr unit  ""
scalar Tests.ue[28].nic.mac 	harqErrorRate_2nd_Ul:mean 	-nan
attr source  harqErrorRate_2nd_Ul
attr title  "Harq Error Rate Dl, mean"
attr unit  ""
scalar Tests.ue[28].nic.mac 	harqErrorRate_1st_Dl:mean 	-nan
attr source  harqErrorRate_1st_Dl
attr title  "Harq Error Rate Dl, mean"
attr unit  ""
scalar Tests.ue[28].nic.mac 	harqErrorRate_1st_Ul:mean 	-nan
attr source  harqErrorRate_1st_Ul
attr title  "Harq Error Rate Dl, mean"
attr unit  ""
scalar Tests.ue[28].nic.mac 	harqErrorRateDl:mean 	-nan
attr source  harqErrorRateDl
attr title  "Harq Error Rate Dl, mean"
attr unit  ""
scalar Tests.ue[28].nic.mac 	harqErrorRateUl:mean 	-nan
attr source  harqErrorRateUl
attr title  "Harq Error Rate Dl, mean"
attr unit  ""
scalar Tests.ue[28].nic.mac 	macPacketLossDl:mean 	-nan
attr source  macPacketLossDl
attr title  "Mac Packet Loss, mean"
attr unit  ""
scalar Tests.ue[28].nic.mac 	macPacketLossUl:mean 	-nan
attr source  macPacketLossUl
attr title  "Mac Packet Loss, mean"
attr unit  ""
scalar Tests.ue[28].nic.mac 	macCellPacketLossUl:mean 	-nan
attr source  macCellPacketLossUl
attr title  "Mac Cell Packet Loss, mean"
attr unit  ""
scalar Tests.ue[28].nic.mac 	macCellPacketLossDl:mean 	-nan
attr source  macCellPacketLossDl
attr title  "Mac Cell Packet Loss, mean"
attr unit  ""
scalar Tests.ue[28].nic.mac 	sentPacketToLowerLayer:count 	0
attr interpolationmode  none
attr source  sentPacketToLowerLayer
scalar Tests.ue[28].nic.mac 	sentPacketToLowerLayer:sum(packetBytes) 	0
attr interpolationmode  none
attr source  sentPacketToLowerLayer
scalar Tests.ue[28].nic.mac 	sentPacketToUpperLayer:count 	0
attr interpolationmode  none
attr source  sentPacketToUpperLayer
scalar Tests.ue[28].nic.mac 	sentPacketToUpperLayer:sum(packetBytes) 	0
attr interpolationmode  none
attr source  sentPacketToUpperLayer
scalar Tests.ue[28].nic.mac 	receivedPacketFromLowerLayer:count 	0
attr interpolationmode  none
attr source  receivedPacketFromLowerLayer
scalar Tests.ue[28].nic.mac 	receivedPacketFromLowerLayer:sum(packetBytes) 	0
attr interpolationmode  none
attr source  receivedPacketFromLowerLayer
scalar Tests.ue[28].nic.mac 	receivedPacketFromUpperLayer:count 	0
attr interpolationmode  none
attr source  receivedPacketFromUpperLayer
scalar Tests.ue[28].nic.mac 	receivedPacketFromUpperLayer:sum(packetBytes) 	0
attr interpolationmode  none
attr source  receivedPacketFromUpperLayer
scalar Tests.ue[28].udpApp[0] 	voipReceivedThroughtput:timeavg 	-nan
attr source  voipReceivedThroughtput
attr title  "Throughput received at the application level, timeavg"
attr unit  Bps
scalar Tests.ue[28].udpApp[0] 	voipReceivedThroughtput:mean 	-nan
attr source  voipReceivedThroughtput
attr title  "Throughput received at the application level, mean"
attr unit  Bps
scalar Tests.ue[28].udpApp[0] 	voipReceivedThroughtput:sum 	0
attr source  voipReceivedThroughtput
attr title  "Throughput received at the application level, sum"
attr unit  Bps
scalar Tests.ue[28].udpApp[0] 	voIPTaildropLoss:mean 	-nan
attr source  voIPTaildropLoss
attr title  "VoIP Tail Drop Loss, mean"
attr unit  ratio
scalar Tests.ue[28].udpApp[0] 	voIPMos:mean 	-nan
attr source  voIPMos
attr title  "VoIP Mos Signal, mean"
attr unit  MOS
scalar Tests.ue[28].udpApp[0] 	voIPJitter:mean 	-nan
attr source  voIPJitter
attr title  "VoIP Playout Loss, mean"
attr unit  s
scalar Tests.ue[28].udpApp[0] 	voIPPlayoutLoss:mean 	-nan
attr source  voIPPlayoutLoss
attr title  "VoIP Playout Loss, mean"
attr unit  ratio
scalar Tests.ue[28].udpApp[0] 	voIPPlayoutDelay:mean 	-nan
attr source  voIPPlayoutDelay
attr title  "VoIP Playout Delay, mean"
attr unit  s
scalar Tests.ue[28].udpApp[0] 	voIPFrameDelay:mean 	-nan
attr source  voIPFrameDelay
attr title  "VoIP Frame Delay, mean"
attr unit  s
scalar Tests.ue[28].udpApp[0] 	voIPFrameLoss:mean 	-nan
attr source  voIPFrameLoss
attr title  "VoIP Frame Loss, mean"
attr unit  ratio
scalar Tests.ue[28].udp 	droppedPkBadChecksum:count 	0
attr interpolationmode  none
attr title  "packets dropped (checksum error), count"
scalar Tests.ue[28].udp 	droppedPkWrongPort:count 	0
attr interpolationmode  none
attr title  "packets dropped (wrong port), count"
scalar Tests.ue[28].udp 	passedUpPk:count 	0
attr interpolationmode  none
attr title  "packets passed up, count"
scalar Tests.ue[28].udp 	rcvdPk:count 	0
attr interpolationmode  none
attr source  rcvdPk
attr title  "packets received, count"
scalar Tests.ue[28].udp 	rcvdPk:sum(packetBytes) 	0
attr interpolationmode  none
attr source  rcvdPk
attr title  "packets received, sum(packetBytes)"
scalar Tests.ue[28].udp 	sentPk:count 	0
attr interpolationmode  none
attr source  sentPk
attr title  "packets sent, count"
scalar Tests.ue[28].udp 	sentPk:sum(packetBytes) 	0
attr interpolationmode  none
attr source  sentPk
attr title  "packets sent, sum(packetBytes)"
scalar Tests.ue[29].networkLayerWIFI.arp 	failedARPResolution:count 	0
attr title  "ARP failed resolutions, count"
scalar Tests.ue[29].networkLayerWIFI.arp 	completedARPResolution:count 	0
attr title  "ARP completed resolutions, count"
scalar Tests.ue[29].networkLayerWIFI.arp 	initiatedARPResolution:count 	0
attr title  "ARP initiated resolutions, count"
scalar Tests.ue[29].networkLayerWIFI.arp 	sentReply:count 	0
attr title  "ARP replies sent, count"
scalar Tests.ue[29].networkLayerWIFI.arp 	sentReq:count 	0
attr title  "ARP request sent, count"
scalar Tests.ue[29].networkLayerLTE.arp 	failedARPResolution:count 	0
attr title  "ARP failed resolutions, count"
scalar Tests.ue[29].networkLayerLTE.arp 	completedARPResolution:count 	0
attr title  "ARP completed resolutions, count"
scalar Tests.ue[29].networkLayerLTE.arp 	initiatedARPResolution:count 	0
attr title  "ARP initiated resolutions, count"
scalar Tests.ue[29].networkLayerLTE.arp 	sentReply:count 	0
attr title  "ARP replies sent, count"
scalar Tests.ue[29].networkLayerLTE.arp 	sentReq:count 	0
attr title  "ARP request sent, count"
scalar Tests.ue[29].nic.pdcpRrc 	sentPacketToLowerLayer:count 	0
attr interpolationmode  none
attr source  sentPacketToLowerLayer
scalar Tests.ue[29].nic.pdcpRrc 	sentPacketToLowerLayer:sum(packetBytes) 	0
attr interpolationmode  none
attr source  sentPacketToLowerLayer
scalar Tests.ue[29].nic.pdcpRrc 	sentPacketToUpperLayer:count 	0
attr interpolationmode  none
attr source  sentPacketToUpperLayer
scalar Tests.ue[29].nic.pdcpRrc 	sentPacketToUpperLayer:sum(packetBytes) 	0
attr interpolationmode  none
attr source  sentPacketToUpperLayer
scalar Tests.ue[29].nic.pdcpRrc 	receivedPacketFromLowerLayer:count 	0
attr interpolationmode  none
attr source  receivedPacketFromLowerLayer
scalar Tests.ue[29].nic.pdcpRrc 	receivedPacketFromLowerLayer:sum(packetBytes) 	0
attr interpolationmode  none
attr source  receivedPacketFromLowerLayer
scalar Tests.ue[29].nic.pdcpRrc 	receivedPacketFromUpperLayer:count 	0
attr interpolationmode  none
attr source  receivedPacketFromUpperLayer
scalar Tests.ue[29].nic.pdcpRrc 	receivedPacketFromUpperLayer:sum(packetBytes) 	0
attr interpolationmode  none
attr source  receivedPacketFromUpperLayer
scalar Tests.ue[29].nic.mac 	measuredItbs:mean 	-nan
attr source  measuredItbs
attr title  "TBS index, mean"
attr unit  ""
scalar Tests.ue[29].nic.mac 	harqErrorRate_4th_Dl:mean 	-nan
attr source  harqErrorRate_4th_Dl
attr title  "Harq Error Rate Dl, mean"
attr unit  ""
scalar Tests.ue[29].nic.mac 	harqErrorRate_4th_Ul:mean 	-nan
attr source  harqErrorRate_4th_Ul
attr title  "Harq Error Rate Dl, mean"
attr unit  ""
scalar Tests.ue[29].nic.mac 	harqErrorRate_3rd_Dl:mean 	-nan
attr source  harqErrorRate_3rd_Dl
attr title  "Harq Error Rate Dl, mean"
attr unit  ""
scalar Tests.ue[29].nic.mac 	harqErrorRate_3rd_Ul:mean 	-nan
attr source  harqErrorRate_3rd_Ul
attr title  "Harq Error Rate Dl, mean"
attr unit  ""
scalar Tests.ue[29].nic.mac 	harqErrorRate_2nd_Dl:mean 	-nan
attr source  harqErrorRate_2nd_Dl
attr title  "Harq Error Rate Dl, mean"
attr unit  ""
scalar Tests.ue[29].nic.mac 	harqErrorRate_2nd_Ul:mean 	-nan
attr source  harqErrorRate_2nd_Ul
attr title  "Harq Error Rate Dl, mean"
attr unit  ""
scalar Tests.ue[29].nic.mac 	harqErrorRate_1st_Dl:mean 	-nan
attr source  harqErrorRate_1st_Dl
attr title  "Harq Error Rate Dl, mean"
attr unit  ""
scalar Tests.ue[29].nic.mac 	harqErrorRate_1st_Ul:mean 	-nan
attr source  harqErrorRate_1st_Ul
attr title  "Harq Error Rate Dl, mean"
attr unit  ""
scalar Tests.ue[29].nic.mac 	harqErrorRateDl:mean 	-nan
attr source  harqErrorRateDl
attr title  "Harq Error Rate Dl, mean"
attr unit  ""
scalar Tests.ue[29].nic.mac 	harqErrorRateUl:mean 	-nan
attr source  harqErrorRateUl
attr title  "Harq Error Rate Dl, mean"
attr unit  ""
scalar Tests.ue[29].nic.mac 	macPacketLossDl:mean 	-nan
attr source  macPacketLossDl
attr title  "Mac Packet Loss, mean"
attr unit  ""
scalar Tests.ue[29].nic.mac 	macPacketLossUl:mean 	-nan
attr source  macPacketLossUl
attr title  "Mac Packet Loss, mean"
attr unit  ""
scalar Tests.ue[29].nic.mac 	macCellPacketLossUl:mean 	-nan
attr source  macCellPacketLossUl
attr title  "Mac Cell Packet Loss, mean"
attr unit  ""
scalar Tests.ue[29].nic.mac 	macCellPacketLossDl:mean 	-nan
attr source  macCellPacketLossDl
attr title  "Mac Cell Packet Loss, mean"
attr unit  ""
scalar Tests.ue[29].nic.mac 	sentPacketToLowerLayer:count 	0
attr interpolationmode  none
attr source  sentPacketToLowerLayer
scalar Tests.ue[29].nic.mac 	sentPacketToLowerLayer:sum(packetBytes) 	0
attr interpolationmode  none
attr source  sentPacketToLowerLayer
scalar Tests.ue[29].nic.mac 	sentPacketToUpperLayer:count 	0
attr interpolationmode  none
attr source  sentPacketToUpperLayer
scalar Tests.ue[29].nic.mac 	sentPacketToUpperLayer:sum(packetBytes) 	0
attr interpolationmode  none
attr source  sentPacketToUpperLayer
scalar Tests.ue[29].nic.mac 	receivedPacketFromLowerLayer:count 	0
attr interpolationmode  none
attr source  receivedPacketFromLowerLayer
scalar Tests.ue[29].nic.mac 	receivedPacketFromLowerLayer:sum(packetBytes) 	0
attr interpolationmode  none
attr source  receivedPacketFromLowerLayer
scalar Tests.ue[29].nic.mac 	receivedPacketFromUpperLayer:count 	0
attr interpolationmode  none
attr source  receivedPacketFromUpperLayer
scalar Tests.ue[29].nic.mac 	receivedPacketFromUpperLayer:sum(packetBytes) 	0
attr interpolationmode  none
attr source  receivedPacketFromUpperLayer
scalar Tests.ue[29].udpApp[0] 	voipReceivedThroughtput:timeavg 	-nan
attr source  voipReceivedThroughtput
attr title  "Throughput received at the application level, timeavg"
attr unit  Bps
scalar Tests.ue[29].udpApp[0] 	voipReceivedThroughtput:mean 	-nan
attr source  voipReceivedThroughtput
attr title  "Throughput received at the application level, mean"
attr unit  Bps
scalar Tests.ue[29].udpApp[0] 	voipReceivedThroughtput:sum 	0
attr source  voipReceivedThroughtput
attr title  "Throughput received at the application level, sum"
attr unit  Bps
scalar Tests.ue[29].udpApp[0] 	voIPTaildropLoss:mean 	-nan
attr source  voIPTaildropLoss
attr title  "VoIP Tail Drop Loss, mean"
attr unit  ratio
scalar Tests.ue[29].udpApp[0] 	voIPMos:mean 	-nan
attr source  voIPMos
attr title  "VoIP Mos Signal, mean"
attr unit  MOS
scalar Tests.ue[29].udpApp[0] 	voIPJitter:mean 	-nan
attr source  voIPJitter
attr title  "VoIP Playout Loss, mean"
attr unit  s
scalar Tests.ue[29].udpApp[0] 	voIPPlayoutLoss:mean 	-nan
attr source  voIPPlayoutLoss
attr title  "VoIP Playout Loss, mean"
attr unit  ratio
scalar Tests.ue[29].udpApp[0] 	voIPPlayoutDelay:mean 	-nan
attr source  voIPPlayoutDelay
attr title  "VoIP Playout Delay, mean"
attr unit  s
scalar Tests.ue[29].udpApp[0] 	voIPFrameDelay:mean 	-nan
attr source  voIPFrameDelay
attr title  "VoIP Frame Delay, mean"
attr unit  s
scalar Tests.ue[29].udpApp[0] 	voIPFrameLoss:mean 	-nan
attr source  voIPFrameLoss
attr title  "VoIP Frame Loss, mean"
attr unit  ratio
scalar Tests.ue[29].udp 	droppedPkBadChecksum:count 	0
attr interpolationmode  none
attr title  "packets dropped (checksum error), count"
scalar Tests.ue[29].udp 	droppedPkWrongPort:count 	0
attr interpolationmode  none
attr title  "packets dropped (wrong port), count"
scalar Tests.ue[29].udp 	passedUpPk:count 	0
attr interpolationmode  none
attr title  "packets passed up, count"
scalar Tests.ue[29].udp 	rcvdPk:count 	0
attr interpolationmode  none
attr source  rcvdPk
attr title  "packets received, count"
scalar Tests.ue[29].udp 	rcvdPk:sum(packetBytes) 	0
attr interpolationmode  none
attr source  rcvdPk
attr title  "packets received, sum(packetBytes)"
scalar Tests.ue[29].udp 	sentPk:count 	0
attr interpolationmode  none
attr source  sentPk
attr title  "packets sent, count"
scalar Tests.ue[29].udp 	sentPk:sum(packetBytes) 	0
attr interpolationmode  none
attr source  sentPk
attr title  "packets sent, sum(packetBytes)"
