version 2
run SingleCell-DL-4-20151112-12:08:44-4180
attr configname SingleCell-DL
attr datetime 20151112-12:08:44
attr experiment SingleCell-DL
attr inifile omnetpp.ini
attr iterationvars $numUEs=30
attr iterationvars2 "$numUEs=30, $repetition=4"
attr measurement $numUEs=30
attr network lte.simulations.networks.Tests
attr numUEs 30
attr processid 4180
attr repetition 4
attr replication #4
attr resultdir results
attr runnumber 4
attr seedset 4

scalar . 	numUEs 	30
scalar Tests 	hackForCreateResultsFolder 	0
scalar Tests.server.networkLayer.arp 	failedARPResolution:count 	0
attr title  "ARP failed resolutions, count"
scalar Tests.server.networkLayer.arp 	completedARPResolution:count 	0
attr title  "ARP completed resolutions, count"
scalar Tests.server.networkLayer.arp 	initiatedARPResolution:count 	0
attr title  "ARP initiated resolutions, count"
scalar Tests.server.networkLayer.arp 	sentReply:count 	0
attr title  "ARP replies sent, count"
scalar Tests.server.networkLayer.arp 	sentReq:count 	0
attr title  "ARP request sent, count"
scalar Tests.server.lo0.lo 	droppedPkBitError:count 	0
attr interpolationmode  none
attr source  dropPkBitError
attr title  "packets dropped/bit error, count"
scalar Tests.server.lo0.lo 	droppedPkBitError:sum(packetBytes) 	0
attr interpolationmode  none
attr source  dropPkBitError
attr title  "packets dropped/bit error, sum(packetBytes)"
scalar Tests.server.lo0.lo 	rcvdPkFromHL:count 	0
attr interpolationmode  none
attr source  packetReceivedFromUpper
attr title  "packets received from higher layer, count"
scalar Tests.server.lo0.lo 	rcvdPkFromHL:sum(packetBytes) 	0
attr interpolationmode  none
attr source  packetReceivedFromUpper
attr title  "packets received from higher layer, sum(packetBytes)"
scalar Tests.server.lo0.lo 	passedUpPk:count 	0
attr interpolationmode  none
attr source  packetSentToUpper
attr title  "packets passed to higher layer, count"
scalar Tests.server.lo0.lo 	passedUpPk:sum(packetBytes) 	0
attr interpolationmode  none
attr source  packetSentToUpper
attr title  "packets passed to higher layer, sum(packetBytes)"
scalar Tests.server.ppp[0].queue 	queueLength:max 	-nan
attr interpolationmode  sample-hold
attr title  "queue length, max"
scalar Tests.server.ppp[0].queue 	queueLength:timeavg 	-nan
attr interpolationmode  sample-hold
attr title  "queue length, timeavg"
statistic Tests.server.ppp[0].queue 	queueingTime:histogram
field count 0
field mean 0
field stddev -nan
field sum 0
field sqrsum 0
field min 0
field max 0
attr interpolationmode  none
attr title  "queueing time, histogram"
bin	-INF	0
bin	-0.5	0
bin	-0.46666666666667	0
bin	-0.43333333333333	0
bin	-0.4	0
bin	-0.36666666666667	0
bin	-0.33333333333333	0
bin	-0.3	0
bin	-0.26666666666667	0
bin	-0.23333333333333	0
bin	-0.2	0
bin	-0.16666666666667	0
bin	-0.13333333333333	0
bin	-0.1	0
bin	-0.066666666666667	0
bin	-0.033333333333333	0
bin	-6.9388939039072e-18	0
bin	0.033333333333333	0
bin	0.066666666666667	0
bin	0.1	0
bin	0.13333333333333	0
bin	0.16666666666667	0
bin	0.2	0
bin	0.23333333333333	0
bin	0.26666666666667	0
bin	0.3	0
bin	0.33333333333333	0
bin	0.36666666666667	0
bin	0.4	0
bin	0.43333333333333	0
bin	0.46666666666667	0
bin	0.5	0
scalar Tests.server.ppp[0].queue 	dropPk:count 	0
attr interpolationmode  none
attr source  dropPkByQueue
attr title  "dropped packets, count"
scalar Tests.server.ppp[0].queue 	dropPk:sum(packetBytes) 	0
attr interpolationmode  none
attr source  dropPkByQueue
attr title  "dropped packets, sum(packetBytes)"
scalar Tests.server.ppp[0].queue 	rcvdPk:count 	0
attr interpolationmode  none
attr title  "received packets, count"
scalar Tests.server.ppp[0].queue 	rcvdPk:sum(packetBytes) 	0
attr interpolationmode  none
attr title  "received packets, sum(packetBytes)"
scalar Tests.server.ppp[0].ppp 	txState:timeavg 	-nan
attr interpolationmode  sample-hold
attr title  "tx state, timeavg"
scalar Tests.server.ppp[0].ppp 	droppedPkIfaceDown:count 	0
attr interpolationmode  none
attr source  dropPkIfaceDown
attr title  "packets dropped/interface down, count"
scalar Tests.server.ppp[0].ppp 	droppedPkIfaceDown:sum(packetBytes) 	0
attr interpolationmode  none
attr source  dropPkIfaceDown
attr title  "packets dropped/interface down, sum(packetBytes)"
scalar Tests.server.ppp[0].ppp 	droppedPkBitError:count 	0
attr interpolationmode  none
attr source  dropPkBitError
attr title  "packets dropped/bit error, count"
scalar Tests.server.ppp[0].ppp 	droppedPkBitError:sum(packetBytes) 	0
attr interpolationmode  none
attr source  dropPkBitError
attr title  "packets dropped/bit error, sum(packetBytes)"
scalar Tests.server.ppp[0].ppp 	rxPkOk:count 	0
attr interpolationmode  none
attr source  rxPkOk
attr title  "packets received OK, count"
scalar Tests.server.ppp[0].ppp 	rxPkOk:sum(packetBytes) 	0
attr interpolationmode  none
attr source  rxPkOk
attr title  "packets received OK, sum(packetBytes)"
scalar Tests.server.ppp[0].ppp 	rcvdPkFromHL:count 	0
attr interpolationmode  none
attr source  packetReceivedFromUpper
attr title  "packets received from higher layer, count"
scalar Tests.server.ppp[0].ppp 	rcvdPkFromHL:sum(packetBytes) 	0
attr interpolationmode  none
attr source  packetReceivedFromUpper
attr title  "packets received from higher layer, sum(packetBytes)"
scalar Tests.server.ppp[0].ppp 	passedUpPk:count 	0
attr interpolationmode  none
attr source  packetSentToUpper
attr title  "packets passed to higher layer, count"
scalar Tests.server.ppp[0].ppp 	passedUpPk:sum(packetBytes) 	0
attr interpolationmode  none
attr source  packetSentToUpper
attr title  "packets passed to higher layer, sum(packetBytes)"
scalar Tests.server.ppp[0].ppp 	txPk:count 	0
attr interpolationmode  none
attr source  packetSentToLower
attr title  "packets transmitted, count"
scalar Tests.server.ppp[0].ppp 	txPk:sum(packetBytes) 	0
attr interpolationmode  none
attr source  packetSentToLower
attr title  "packets transmitted, sum(packetBytes)"
scalar Tests.router.networkLayer.arp 	failedARPResolution:count 	0
attr title  "ARP failed resolutions, count"
scalar Tests.router.networkLayer.arp 	completedARPResolution:count 	0
attr title  "ARP completed resolutions, count"
scalar Tests.router.networkLayer.arp 	initiatedARPResolution:count 	0
attr title  "ARP initiated resolutions, count"
scalar Tests.router.networkLayer.arp 	sentReply:count 	0
attr title  "ARP replies sent, count"
scalar Tests.router.networkLayer.arp 	sentReq:count 	0
attr title  "ARP request sent, count"
scalar Tests.router.lo0.lo 	droppedPkBitError:count 	0
attr interpolationmode  none
attr source  dropPkBitError
attr title  "packets dropped/bit error, count"
scalar Tests.router.lo0.lo 	droppedPkBitError:sum(packetBytes) 	0
attr interpolationmode  none
attr source  dropPkBitError
attr title  "packets dropped/bit error, sum(packetBytes)"
scalar Tests.router.lo0.lo 	rcvdPkFromHL:count 	0
attr interpolationmode  none
attr source  packetReceivedFromUpper
attr title  "packets received from higher layer, count"
scalar Tests.router.lo0.lo 	rcvdPkFromHL:sum(packetBytes) 	0
attr interpolationmode  none
attr source  packetReceivedFromUpper
attr title  "packets received from higher layer, sum(packetBytes)"
scalar Tests.router.lo0.lo 	passedUpPk:count 	0
attr interpolationmode  none
attr source  packetSentToUpper
attr title  "packets passed to higher layer, count"
scalar Tests.router.lo0.lo 	passedUpPk:sum(packetBytes) 	0
attr interpolationmode  none
attr source  packetSentToUpper
attr title  "packets passed to higher layer, sum(packetBytes)"
scalar Tests.router.ppp[0].queue 	queueLength:max 	-nan
attr interpolationmode  sample-hold
attr title  "queue length, max"
scalar Tests.router.ppp[0].queue 	queueLength:timeavg 	-nan
attr interpolationmode  sample-hold
attr title  "queue length, timeavg"
statistic Tests.router.ppp[0].queue 	queueingTime:histogram
field count 0
field mean 0
field stddev -nan
field sum 0
field sqrsum 0
field min 0
field max 0
attr interpolationmode  none
attr title  "queueing time, histogram"
bin	-INF	0
bin	-0.5	0
bin	-0.46666666666667	0
bin	-0.43333333333333	0
bin	-0.4	0
bin	-0.36666666666667	0
bin	-0.33333333333333	0
bin	-0.3	0
bin	-0.26666666666667	0
bin	-0.23333333333333	0
bin	-0.2	0
bin	-0.16666666666667	0
bin	-0.13333333333333	0
bin	-0.1	0
bin	-0.066666666666667	0
bin	-0.033333333333333	0
bin	-6.9388939039072e-18	0
bin	0.033333333333333	0
bin	0.066666666666667	0
bin	0.1	0
bin	0.13333333333333	0
bin	0.16666666666667	0
bin	0.2	0
bin	0.23333333333333	0
bin	0.26666666666667	0
bin	0.3	0
bin	0.33333333333333	0
bin	0.36666666666667	0
bin	0.4	0
bin	0.43333333333333	0
bin	0.46666666666667	0
bin	0.5	0
scalar Tests.router.ppp[0].queue 	dropPk:count 	0
attr interpolationmode  none
attr source  dropPkByQueue
attr title  "dropped packets, count"
scalar Tests.router.ppp[0].queue 	dropPk:sum(packetBytes) 	0
attr interpolationmode  none
attr source  dropPkByQueue
attr title  "dropped packets, sum(packetBytes)"
scalar Tests.router.ppp[0].queue 	rcvdPk:count 	0
attr interpolationmode  none
attr title  "received packets, count"
scalar Tests.router.ppp[0].queue 	rcvdPk:sum(packetBytes) 	0
attr interpolationmode  none
attr title  "received packets, sum(packetBytes)"
scalar Tests.router.ppp[0].ppp 	txState:timeavg 	-nan
attr interpolationmode  sample-hold
attr title  "tx state, timeavg"
scalar Tests.router.ppp[0].ppp 	droppedPkIfaceDown:count 	0
attr interpolationmode  none
attr source  dropPkIfaceDown
attr title  "packets dropped/interface down, count"
scalar Tests.router.ppp[0].ppp 	droppedPkIfaceDown:sum(packetBytes) 	0
attr interpolationmode  none
attr source  dropPkIfaceDown
attr title  "packets dropped/interface down, sum(packetBytes)"
scalar Tests.router.ppp[0].ppp 	droppedPkBitError:count 	0
attr interpolationmode  none
attr source  dropPkBitError
attr title  "packets dropped/bit error, count"
scalar Tests.router.ppp[0].ppp 	droppedPkBitError:sum(packetBytes) 	0
attr interpolationmode  none
attr source  dropPkBitError
attr title  "packets dropped/bit error, sum(packetBytes)"
scalar Tests.router.ppp[0].ppp 	rxPkOk:count 	0
attr interpolationmode  none
attr source  rxPkOk
attr title  "packets received OK, count"
scalar Tests.router.ppp[0].ppp 	rxPkOk:sum(packetBytes) 	0
attr interpolationmode  none
attr source  rxPkOk
attr title  "packets received OK, sum(packetBytes)"
scalar Tests.router.ppp[0].ppp 	rcvdPkFromHL:count 	0
attr interpolationmode  none
attr source  packetReceivedFromUpper
attr title  "packets received from higher layer, count"
scalar Tests.router.ppp[0].ppp 	rcvdPkFromHL:sum(packetBytes) 	0
attr interpolationmode  none
attr source  packetReceivedFromUpper
attr title  "packets received from higher layer, sum(packetBytes)"
scalar Tests.router.ppp[0].ppp 	passedUpPk:count 	0
attr interpolationmode  none
attr source  packetSentToUpper
attr title  "packets passed to higher layer, count"
scalar Tests.router.ppp[0].ppp 	passedUpPk:sum(packetBytes) 	0
attr interpolationmode  none
attr source  packetSentToUpper
attr title  "packets passed to higher layer, sum(packetBytes)"
scalar Tests.router.ppp[0].ppp 	txPk:count 	0
attr interpolationmode  none
attr source  packetSentToLower
attr title  "packets transmitted, count"
scalar Tests.router.ppp[0].ppp 	txPk:sum(packetBytes) 	0
attr interpolationmode  none
attr source  packetSentToLower
attr title  "packets transmitted, sum(packetBytes)"
scalar Tests.router.ppp[1].queue 	queueLength:max 	-nan
attr interpolationmode  sample-hold
attr title  "queue length, max"
scalar Tests.router.ppp[1].queue 	queueLength:timeavg 	-nan
attr interpolationmode  sample-hold
attr title  "queue length, timeavg"
statistic Tests.router.ppp[1].queue 	queueingTime:histogram
field count 0
field mean 0
field stddev -nan
field sum 0
field sqrsum 0
field min 0
field max 0
attr interpolationmode  none
attr title  "queueing time, histogram"
bin	-INF	0
bin	-0.5	0
bin	-0.46666666666667	0
bin	-0.43333333333333	0
bin	-0.4	0
bin	-0.36666666666667	0
bin	-0.33333333333333	0
bin	-0.3	0
bin	-0.26666666666667	0
bin	-0.23333333333333	0
bin	-0.2	0
bin	-0.16666666666667	0
bin	-0.13333333333333	0
bin	-0.1	0
bin	-0.066666666666667	0
bin	-0.033333333333333	0
bin	-6.9388939039072e-18	0
bin	0.033333333333333	0
bin	0.066666666666667	0
bin	0.1	0
bin	0.13333333333333	0
bin	0.16666666666667	0
bin	0.2	0
bin	0.23333333333333	0
bin	0.26666666666667	0
bin	0.3	0
bin	0.33333333333333	0
bin	0.36666666666667	0
bin	0.4	0
bin	0.43333333333333	0
bin	0.46666666666667	0
bin	0.5	0
scalar Tests.router.ppp[1].queue 	dropPk:count 	0
attr interpolationmode  none
attr source  dropPkByQueue
attr title  "dropped packets, count"
scalar Tests.router.ppp[1].queue 	dropPk:sum(packetBytes) 	0
attr interpolationmode  none
attr source  dropPkByQueue
attr title  "dropped packets, sum(packetBytes)"
scalar Tests.router.ppp[1].queue 	rcvdPk:count 	0
attr interpolationmode  none
attr title  "received packets, count"
scalar Tests.router.ppp[1].queue 	rcvdPk:sum(packetBytes) 	0
attr interpolationmode  none
attr title  "received packets, sum(packetBytes)"
scalar Tests.router.ppp[1].ppp 	txState:timeavg 	-nan
attr interpolationmode  sample-hold
attr title  "tx state, timeavg"
scalar Tests.router.ppp[1].ppp 	droppedPkIfaceDown:count 	0
attr interpolationmode  none
attr source  dropPkIfaceDown
attr title  "packets dropped/interface down, count"
scalar Tests.router.ppp[1].ppp 	droppedPkIfaceDown:sum(packetBytes) 	0
attr interpolationmode  none
attr source  dropPkIfaceDown
attr title  "packets dropped/interface down, sum(packetBytes)"
scalar Tests.router.ppp[1].ppp 	droppedPkBitError:count 	0
attr interpolationmode  none
attr source  dropPkBitError
attr title  "packets dropped/bit error, count"
scalar Tests.router.ppp[1].ppp 	droppedPkBitError:sum(packetBytes) 	0
attr interpolationmode  none
attr source  dropPkBitError
attr title  "packets dropped/bit error, sum(packetBytes)"
scalar Tests.router.ppp[1].ppp 	rxPkOk:count 	0
attr interpolationmode  none
attr source  rxPkOk
attr title  "packets received OK, count"
scalar Tests.router.ppp[1].ppp 	rxPkOk:sum(packetBytes) 	0
attr interpolationmode  none
attr source  rxPkOk
attr title  "packets received OK, sum(packetBytes)"
scalar Tests.router.ppp[1].ppp 	rcvdPkFromHL:count 	0
attr interpolationmode  none
attr source  packetReceivedFromUpper
attr title  "packets received from higher layer, count"
scalar Tests.router.ppp[1].ppp 	rcvdPkFromHL:sum(packetBytes) 	0
attr interpolationmode  none
attr source  packetReceivedFromUpper
attr title  "packets received from higher layer, sum(packetBytes)"
scalar Tests.router.ppp[1].ppp 	passedUpPk:count 	0
attr interpolationmode  none
attr source  packetSentToUpper
attr title  "packets passed to higher layer, count"
scalar Tests.router.ppp[1].ppp 	passedUpPk:sum(packetBytes) 	0
attr interpolationmode  none
attr source  packetSentToUpper
attr title  "packets passed to higher layer, sum(packetBytes)"
scalar Tests.router.ppp[1].ppp 	txPk:count 	0
attr interpolationmode  none
attr source  packetSentToLower
attr title  "packets transmitted, count"
scalar Tests.router.ppp[1].ppp 	txPk:sum(packetBytes) 	0
attr interpolationmode  none
attr source  packetSentToLower
attr title  "packets transmitted, sum(packetBytes)"
scalar Tests.eNodeB.nic.pdcpRrc 	sentPacketToLowerLayer:count 	0
attr interpolationmode  none
attr source  sentPacketToLowerLayer
scalar Tests.eNodeB.nic.pdcpRrc 	sentPacketToLowerLayer:sum(packetBytes) 	0
attr interpolationmode  none
attr source  sentPacketToLowerLayer
scalar Tests.eNodeB.nic.pdcpRrc 	sentPacketToUpperLayer:count 	0
attr interpolationmode  none
attr source  sentPacketToUpperLayer
scalar Tests.eNodeB.nic.pdcpRrc 	sentPacketToUpperLayer:sum(packetBytes) 	0
attr interpolationmode  none
attr source  sentPacketToUpperLayer
scalar Tests.eNodeB.nic.pdcpRrc 	receivedPacketFromLowerLayer:count 	0
attr interpolationmode  none
attr source  receivedPacketFromLowerLayer
scalar Tests.eNodeB.nic.pdcpRrc 	receivedPacketFromLowerLayer:sum(packetBytes) 	0
attr interpolationmode  none
attr source  receivedPacketFromLowerLayer
scalar Tests.eNodeB.nic.pdcpRrc 	receivedPacketFromUpperLayer:count 	0
attr interpolationmode  none
attr source  receivedPacketFromUpperLayer
scalar Tests.eNodeB.nic.pdcpRrc 	receivedPacketFromUpperLayer:sum(packetBytes) 	0
attr interpolationmode  none
attr source  receivedPacketFromUpperLayer
scalar Tests.eNodeB.nic.mac 	cqiDlMuMimo4:lteAvg 	12.361
attr source  cqiDlMuMimo4
attr title  "Average cqi MuMimo band 4, lteAvg"
attr unit  cqi
scalar Tests.eNodeB.nic.mac 	cqiDlMuMimo4:lteAvg 	8.452
attr source  cqiDlMuMimo4
attr title  "Average cqi MuMimo band 4, lteAvg"
attr unit  cqi
scalar Tests.eNodeB.nic.mac 	cqiDlMuMimo4:lteAvg 	14.754666666667
attr source  cqiDlMuMimo4
attr title  "Average cqi MuMimo band 4, lteAvg"
attr unit  cqi
scalar Tests.eNodeB.nic.mac 	cqiDlMuMimo4:lteAvg 	14.999666666667
attr source  cqiDlMuMimo4
attr title  "Average cqi MuMimo band 4, lteAvg"
attr unit  cqi
scalar Tests.eNodeB.nic.mac 	cqiDlMuMimo4:lteAvg 	14.101333333333
attr source  cqiDlMuMimo4
attr title  "Average cqi MuMimo band 4, lteAvg"
attr unit  cqi
scalar Tests.eNodeB.nic.mac 	cqiDlMuMimo4:lteAvg 	13.442666666667
attr source  cqiDlMuMimo4
attr title  "Average cqi MuMimo band 4, lteAvg"
attr unit  cqi
scalar Tests.eNodeB.nic.mac 	cqiDlMuMimo4:lteAvg 	8.6453333333333
attr source  cqiDlMuMimo4
attr title  "Average cqi MuMimo band 4, lteAvg"
attr unit  cqi
scalar Tests.eNodeB.nic.mac 	cqiDlMuMimo4:lteAvg 	14.994333333333
attr source  cqiDlMuMimo4
attr title  "Average cqi MuMimo band 4, lteAvg"
attr unit  cqi
scalar Tests.eNodeB.nic.mac 	cqiDlMuMimo4:lteAvg 	4.905
attr source  cqiDlMuMimo4
attr title  "Average cqi MuMimo band 4, lteAvg"
attr unit  cqi
scalar Tests.eNodeB.nic.mac 	cqiDlMuMimo4:lteAvg 	14.912333333333
attr source  cqiDlMuMimo4
attr title  "Average cqi MuMimo band 4, lteAvg"
attr unit  cqi
scalar Tests.eNodeB.nic.mac 	cqiDlMuMimo4:lteAvg 	14.739333333333
attr source  cqiDlMuMimo4
attr title  "Average cqi MuMimo band 4, lteAvg"
attr unit  cqi
scalar Tests.eNodeB.nic.mac 	cqiDlMuMimo4:lteAvg 	14.987666666667
attr source  cqiDlMuMimo4
attr title  "Average cqi MuMimo band 4, lteAvg"
attr unit  cqi
scalar Tests.eNodeB.nic.mac 	cqiDlMuMimo4:lteAvg 	7.228
attr source  cqiDlMuMimo4
attr title  "Average cqi MuMimo band 4, lteAvg"
attr unit  cqi
scalar Tests.eNodeB.nic.mac 	cqiDlMuMimo4:lteAvg 	14.999333333333
attr source  cqiDlMuMimo4
attr title  "Average cqi MuMimo band 4, lteAvg"
attr unit  cqi
scalar Tests.eNodeB.nic.mac 	cqiDlMuMimo4:lteAvg 	14.758333333333
attr source  cqiDlMuMimo4
attr title  "Average cqi MuMimo band 4, lteAvg"
attr unit  cqi
scalar Tests.eNodeB.nic.mac 	cqiDlMuMimo4:lteAvg 	10.860333333333
attr source  cqiDlMuMimo4
attr title  "Average cqi MuMimo band 4, lteAvg"
attr unit  cqi
scalar Tests.eNodeB.nic.mac 	cqiDlMuMimo4:lteAvg 	6.257
attr source  cqiDlMuMimo4
attr title  "Average cqi MuMimo band 4, lteAvg"
attr unit  cqi
scalar Tests.eNodeB.nic.mac 	cqiDlMuMimo4:lteAvg 	13.391666666667
attr source  cqiDlMuMimo4
attr title  "Average cqi MuMimo band 4, lteAvg"
attr unit  cqi
scalar Tests.eNodeB.nic.mac 	cqiDlMuMimo4:lteAvg 	14.253
attr source  cqiDlMuMimo4
attr title  "Average cqi MuMimo band 4, lteAvg"
attr unit  cqi
scalar Tests.eNodeB.nic.mac 	cqiDlMuMimo4:lteAvg 	14.004666666667
attr source  cqiDlMuMimo4
attr title  "Average cqi MuMimo band 4, lteAvg"
attr unit  cqi
scalar Tests.eNodeB.nic.mac 	cqiDlMuMimo4:lteAvg 	11.431
attr source  cqiDlMuMimo4
attr title  "Average cqi MuMimo band 4, lteAvg"
attr unit  cqi
scalar Tests.eNodeB.nic.mac 	cqiDlMuMimo4:lteAvg 	5.8793333333333
attr source  cqiDlMuMimo4
attr title  "Average cqi MuMimo band 4, lteAvg"
attr unit  cqi
scalar Tests.eNodeB.nic.mac 	cqiDlMuMimo4:lteAvg 	14.986333333333
attr source  cqiDlMuMimo4
attr title  "Average cqi MuMimo band 4, lteAvg"
attr unit  cqi
scalar Tests.eNodeB.nic.mac 	cqiDlMuMimo4:lteAvg 	11.965666666667
attr source  cqiDlMuMimo4
attr title  "Average cqi MuMimo band 4, lteAvg"
attr unit  cqi
scalar Tests.eNodeB.nic.mac 	cqiDlMuMimo4:lteAvg 	9.17
attr source  cqiDlMuMimo4
attr title  "Average cqi MuMimo band 4, lteAvg"
attr unit  cqi
scalar Tests.eNodeB.nic.mac 	cqiDlMuMimo4:lteAvg 	14.431
attr source  cqiDlMuMimo4
attr title  "Average cqi MuMimo band 4, lteAvg"
attr unit  cqi
scalar Tests.eNodeB.nic.mac 	cqiDlMuMimo4:lteAvg 	14.953
attr source  cqiDlMuMimo4
attr title  "Average cqi MuMimo band 4, lteAvg"
attr unit  cqi
scalar Tests.eNodeB.nic.mac 	cqiDlMuMimo4:lteAvg 	14.958666666667
attr source  cqiDlMuMimo4
attr title  "Average cqi MuMimo band 4, lteAvg"
attr unit  cqi
scalar Tests.eNodeB.nic.mac 	cqiDlMuMimo4:lteAvg 	14.556
attr source  cqiDlMuMimo4
attr title  "Average cqi MuMimo band 4, lteAvg"
attr unit  cqi
scalar Tests.eNodeB.nic.mac 	cqiDlMuMimo4:lteAvg 	9.2426666666667
attr source  cqiDlMuMimo4
attr title  "Average cqi MuMimo band 4, lteAvg"
attr unit  cqi
scalar Tests.eNodeB.nic.mac 	cqiDlMuMimo3:lteAvg 	7.7393333333333
attr source  cqiDlMuMimo3
attr title  "Average cqi MuMimo band 3, lteAvg"
attr unit  cqi
scalar Tests.eNodeB.nic.mac 	cqiDlMuMimo3:lteAvg 	4.1993333333333
attr source  cqiDlMuMimo3
attr title  "Average cqi MuMimo band 3, lteAvg"
attr unit  cqi
scalar Tests.eNodeB.nic.mac 	cqiDlMuMimo3:lteAvg 	11.362666666667
attr source  cqiDlMuMimo3
attr title  "Average cqi MuMimo band 3, lteAvg"
attr unit  cqi
scalar Tests.eNodeB.nic.mac 	cqiDlMuMimo3:lteAvg 	15
attr source  cqiDlMuMimo3
attr title  "Average cqi MuMimo band 3, lteAvg"
attr unit  cqi
scalar Tests.eNodeB.nic.mac 	cqiDlMuMimo3:lteAvg 	14.525333333333
attr source  cqiDlMuMimo3
attr title  "Average cqi MuMimo band 3, lteAvg"
attr unit  cqi
scalar Tests.eNodeB.nic.mac 	cqiDlMuMimo3:lteAvg 	9.5563333333333
attr source  cqiDlMuMimo3
attr title  "Average cqi MuMimo band 3, lteAvg"
attr unit  cqi
scalar Tests.eNodeB.nic.mac 	cqiDlMuMimo3:lteAvg 	5.3926666666667
attr source  cqiDlMuMimo3
attr title  "Average cqi MuMimo band 3, lteAvg"
attr unit  cqi
scalar Tests.eNodeB.nic.mac 	cqiDlMuMimo3:lteAvg 	14.999333333333
attr source  cqiDlMuMimo3
attr title  "Average cqi MuMimo band 3, lteAvg"
attr unit  cqi
scalar Tests.eNodeB.nic.mac 	cqiDlMuMimo3:lteAvg 	11.567333333333
attr source  cqiDlMuMimo3
attr title  "Average cqi MuMimo band 3, lteAvg"
attr unit  cqi
scalar Tests.eNodeB.nic.mac 	cqiDlMuMimo3:lteAvg 	14.963333333333
attr source  cqiDlMuMimo3
attr title  "Average cqi MuMimo band 3, lteAvg"
attr unit  cqi
scalar Tests.eNodeB.nic.mac 	cqiDlMuMimo3:lteAvg 	12.17
attr source  cqiDlMuMimo3
attr title  "Average cqi MuMimo band 3, lteAvg"
attr unit  cqi
scalar Tests.eNodeB.nic.mac 	cqiDlMuMimo3:lteAvg 	14.991333333333
attr source  cqiDlMuMimo3
attr title  "Average cqi MuMimo band 3, lteAvg"
attr unit  cqi
scalar Tests.eNodeB.nic.mac 	cqiDlMuMimo3:lteAvg 	3.2053333333333
attr source  cqiDlMuMimo3
attr title  "Average cqi MuMimo band 3, lteAvg"
attr unit  cqi
scalar Tests.eNodeB.nic.mac 	cqiDlMuMimo3:lteAvg 	14.993666666667
attr source  cqiDlMuMimo3
attr title  "Average cqi MuMimo band 3, lteAvg"
attr unit  cqi
scalar Tests.eNodeB.nic.mac 	cqiDlMuMimo3:lteAvg 	14.563333333333
attr source  cqiDlMuMimo3
attr title  "Average cqi MuMimo band 3, lteAvg"
attr unit  cqi
scalar Tests.eNodeB.nic.mac 	cqiDlMuMimo3:lteAvg 	9.947
attr source  cqiDlMuMimo3
attr title  "Average cqi MuMimo band 3, lteAvg"
attr unit  cqi
scalar Tests.eNodeB.nic.mac 	cqiDlMuMimo3:lteAvg 	13.630333333333
attr source  cqiDlMuMimo3
attr title  "Average cqi MuMimo band 3, lteAvg"
attr unit  cqi
scalar Tests.eNodeB.nic.mac 	cqiDlMuMimo3:lteAvg 	10.197
attr source  cqiDlMuMimo3
attr title  "Average cqi MuMimo band 3, lteAvg"
attr unit  cqi
scalar Tests.eNodeB.nic.mac 	cqiDlMuMimo3:lteAvg 	14.713333333333
attr source  cqiDlMuMimo3
attr title  "Average cqi MuMimo band 3, lteAvg"
attr unit  cqi
scalar Tests.eNodeB.nic.mac 	cqiDlMuMimo3:lteAvg 	5.6813333333333
attr source  cqiDlMuMimo3
attr title  "Average cqi MuMimo band 3, lteAvg"
attr unit  cqi
scalar Tests.eNodeB.nic.mac 	cqiDlMuMimo3:lteAvg 	13.891333333333
attr source  cqiDlMuMimo3
attr title  "Average cqi MuMimo band 3, lteAvg"
attr unit  cqi
scalar Tests.eNodeB.nic.mac 	cqiDlMuMimo3:lteAvg 	8.664
attr source  cqiDlMuMimo3
attr title  "Average cqi MuMimo band 3, lteAvg"
attr unit  cqi
scalar Tests.eNodeB.nic.mac 	cqiDlMuMimo3:lteAvg 	14.843333333333
attr source  cqiDlMuMimo3
attr title  "Average cqi MuMimo band 3, lteAvg"
attr unit  cqi
scalar Tests.eNodeB.nic.mac 	cqiDlMuMimo3:lteAvg 	12.059
attr source  cqiDlMuMimo3
attr title  "Average cqi MuMimo band 3, lteAvg"
attr unit  cqi
scalar Tests.eNodeB.nic.mac 	cqiDlMuMimo3:lteAvg 	11.493333333333
attr source  cqiDlMuMimo3
attr title  "Average cqi MuMimo band 3, lteAvg"
attr unit  cqi
scalar Tests.eNodeB.nic.mac 	cqiDlMuMimo3:lteAvg 	13.540333333333
attr source  cqiDlMuMimo3
attr title  "Average cqi MuMimo band 3, lteAvg"
attr unit  cqi
scalar Tests.eNodeB.nic.mac 	cqiDlMuMimo3:lteAvg 	14.941
attr source  cqiDlMuMimo3
attr title  "Average cqi MuMimo band 3, lteAvg"
attr unit  cqi
scalar Tests.eNodeB.nic.mac 	cqiDlMuMimo3:lteAvg 	14.941666666667
attr source  cqiDlMuMimo3
attr title  "Average cqi MuMimo band 3, lteAvg"
attr unit  cqi
scalar Tests.eNodeB.nic.mac 	cqiDlMuMimo3:lteAvg 	12.634
attr source  cqiDlMuMimo3
attr title  "Average cqi MuMimo band 3, lteAvg"
attr unit  cqi
scalar Tests.eNodeB.nic.mac 	cqiDlMuMimo3:lteAvg 	13.739333333333
attr source  cqiDlMuMimo3
attr title  "Average cqi MuMimo band 3, lteAvg"
attr unit  cqi
scalar Tests.eNodeB.nic.mac 	cqiDlMuMimo2:lteAvg 	12.882666666667
attr source  cqiDlMuMimo2
attr title  "Average cqi MuMimo band 2, lteAvg"
attr unit  cqi
scalar Tests.eNodeB.nic.mac 	cqiDlMuMimo2:lteAvg 	2.8683333333333
attr source  cqiDlMuMimo2
attr title  "Average cqi MuMimo band 2, lteAvg"
attr unit  cqi
scalar Tests.eNodeB.nic.mac 	cqiDlMuMimo2:lteAvg 	14.755333333333
attr source  cqiDlMuMimo2
attr title  "Average cqi MuMimo band 2, lteAvg"
attr unit  cqi
scalar Tests.eNodeB.nic.mac 	cqiDlMuMimo2:lteAvg 	14.999
attr source  cqiDlMuMimo2
attr title  "Average cqi MuMimo band 2, lteAvg"
attr unit  cqi
scalar Tests.eNodeB.nic.mac 	cqiDlMuMimo2:lteAvg 	14.808666666667
attr source  cqiDlMuMimo2
attr title  "Average cqi MuMimo band 2, lteAvg"
attr unit  cqi
scalar Tests.eNodeB.nic.mac 	cqiDlMuMimo2:lteAvg 	12.78
attr source  cqiDlMuMimo2
attr title  "Average cqi MuMimo band 2, lteAvg"
attr unit  cqi
scalar Tests.eNodeB.nic.mac 	cqiDlMuMimo2:lteAvg 	2.7976666666667
attr source  cqiDlMuMimo2
attr title  "Average cqi MuMimo band 2, lteAvg"
attr unit  cqi
scalar Tests.eNodeB.nic.mac 	cqiDlMuMimo2:lteAvg 	14.995666666667
attr source  cqiDlMuMimo2
attr title  "Average cqi MuMimo band 2, lteAvg"
attr unit  cqi
scalar Tests.eNodeB.nic.mac 	cqiDlMuMimo2:lteAvg 	4.9
attr source  cqiDlMuMimo2
attr title  "Average cqi MuMimo band 2, lteAvg"
attr unit  cqi
scalar Tests.eNodeB.nic.mac 	cqiDlMuMimo2:lteAvg 	14.337333333333
attr source  cqiDlMuMimo2
attr title  "Average cqi MuMimo band 2, lteAvg"
attr unit  cqi
scalar Tests.eNodeB.nic.mac 	cqiDlMuMimo2:lteAvg 	11.839666666667
attr source  cqiDlMuMimo2
attr title  "Average cqi MuMimo band 2, lteAvg"
attr unit  cqi
scalar Tests.eNodeB.nic.mac 	cqiDlMuMimo2:lteAvg 	14.981333333333
attr source  cqiDlMuMimo2
attr title  "Average cqi MuMimo band 2, lteAvg"
attr unit  cqi
scalar Tests.eNodeB.nic.mac 	cqiDlMuMimo2:lteAvg 	7.7873333333333
attr source  cqiDlMuMimo2
attr title  "Average cqi MuMimo band 2, lteAvg"
attr unit  cqi
scalar Tests.eNodeB.nic.mac 	cqiDlMuMimo2:lteAvg 	15
attr source  cqiDlMuMimo2
attr title  "Average cqi MuMimo band 2, lteAvg"
attr unit  cqi
scalar Tests.eNodeB.nic.mac 	cqiDlMuMimo2:lteAvg 	13.258333333333
attr source  cqiDlMuMimo2
attr title  "Average cqi MuMimo band 2, lteAvg"
attr unit  cqi
scalar Tests.eNodeB.nic.mac 	cqiDlMuMimo2:lteAvg 	14.204666666667
attr source  cqiDlMuMimo2
attr title  "Average cqi MuMimo band 2, lteAvg"
attr unit  cqi
scalar Tests.eNodeB.nic.mac 	cqiDlMuMimo2:lteAvg 	12.963333333333
attr source  cqiDlMuMimo2
attr title  "Average cqi MuMimo band 2, lteAvg"
attr unit  cqi
scalar Tests.eNodeB.nic.mac 	cqiDlMuMimo2:lteAvg 	12.815333333333
attr source  cqiDlMuMimo2
attr title  "Average cqi MuMimo band 2, lteAvg"
attr unit  cqi
scalar Tests.eNodeB.nic.mac 	cqiDlMuMimo2:lteAvg 	14.131666666667
attr source  cqiDlMuMimo2
attr title  "Average cqi MuMimo band 2, lteAvg"
attr unit  cqi
scalar Tests.eNodeB.nic.mac 	cqiDlMuMimo2:lteAvg 	13.102
attr source  cqiDlMuMimo2
attr title  "Average cqi MuMimo band 2, lteAvg"
attr unit  cqi
scalar Tests.eNodeB.nic.mac 	cqiDlMuMimo2:lteAvg 	12.978333333333
attr source  cqiDlMuMimo2
attr title  "Average cqi MuMimo band 2, lteAvg"
attr unit  cqi
scalar Tests.eNodeB.nic.mac 	cqiDlMuMimo2:lteAvg 	7.702
attr source  cqiDlMuMimo2
attr title  "Average cqi MuMimo band 2, lteAvg"
attr unit  cqi
scalar Tests.eNodeB.nic.mac 	cqiDlMuMimo2:lteAvg 	14.696
attr source  cqiDlMuMimo2
attr title  "Average cqi MuMimo band 2, lteAvg"
attr unit  cqi
scalar Tests.eNodeB.nic.mac 	cqiDlMuMimo2:lteAvg 	7.921
attr source  cqiDlMuMimo2
attr title  "Average cqi MuMimo band 2, lteAvg"
attr unit  cqi
scalar Tests.eNodeB.nic.mac 	cqiDlMuMimo2:lteAvg 	11.508333333333
attr source  cqiDlMuMimo2
attr title  "Average cqi MuMimo band 2, lteAvg"
attr unit  cqi
scalar Tests.eNodeB.nic.mac 	cqiDlMuMimo2:lteAvg 	12.487333333333
attr source  cqiDlMuMimo2
attr title  "Average cqi MuMimo band 2, lteAvg"
attr unit  cqi
scalar Tests.eNodeB.nic.mac 	cqiDlMuMimo2:lteAvg 	10.349666666667
attr source  cqiDlMuMimo2
attr title  "Average cqi MuMimo band 2, lteAvg"
attr unit  cqi
scalar Tests.eNodeB.nic.mac 	cqiDlMuMimo2:lteAvg 	14.966666666667
attr source  cqiDlMuMimo2
attr title  "Average cqi MuMimo band 2, lteAvg"
attr unit  cqi
scalar Tests.eNodeB.nic.mac 	cqiDlMuMimo2:lteAvg 	14.540333333333
attr source  cqiDlMuMimo2
attr title  "Average cqi MuMimo band 2, lteAvg"
attr unit  cqi
scalar Tests.eNodeB.nic.mac 	cqiDlMuMimo2:lteAvg 	10.558333333333
attr source  cqiDlMuMimo2
attr title  "Average cqi MuMimo band 2, lteAvg"
attr unit  cqi
scalar Tests.eNodeB.nic.mac 	cqiDlMuMimo1:lteAvg 	12.894666666667
attr source  cqiDlMuMimo1
attr title  "Average cqi MuMimo band 1, lteAvg"
attr unit  cqi
scalar Tests.eNodeB.nic.mac 	cqiDlMuMimo1:lteAvg 	2.1706666666667
attr source  cqiDlMuMimo1
attr title  "Average cqi MuMimo band 1, lteAvg"
attr unit  cqi
scalar Tests.eNodeB.nic.mac 	cqiDlMuMimo1:lteAvg 	14.743666666667
attr source  cqiDlMuMimo1
attr title  "Average cqi MuMimo band 1, lteAvg"
attr unit  cqi
scalar Tests.eNodeB.nic.mac 	cqiDlMuMimo1:lteAvg 	14.996666666667
attr source  cqiDlMuMimo1
attr title  "Average cqi MuMimo band 1, lteAvg"
attr unit  cqi
scalar Tests.eNodeB.nic.mac 	cqiDlMuMimo1:lteAvg 	13.863333333333
attr source  cqiDlMuMimo1
attr title  "Average cqi MuMimo band 1, lteAvg"
attr unit  cqi
scalar Tests.eNodeB.nic.mac 	cqiDlMuMimo1:lteAvg 	13.757666666667
attr source  cqiDlMuMimo1
attr title  "Average cqi MuMimo band 1, lteAvg"
attr unit  cqi
scalar Tests.eNodeB.nic.mac 	cqiDlMuMimo1:lteAvg 	4.9923333333333
attr source  cqiDlMuMimo1
attr title  "Average cqi MuMimo band 1, lteAvg"
attr unit  cqi
scalar Tests.eNodeB.nic.mac 	cqiDlMuMimo1:lteAvg 	14.998666666667
attr source  cqiDlMuMimo1
attr title  "Average cqi MuMimo band 1, lteAvg"
attr unit  cqi
scalar Tests.eNodeB.nic.mac 	cqiDlMuMimo1:lteAvg 	9.3513333333333
attr source  cqiDlMuMimo1
attr title  "Average cqi MuMimo band 1, lteAvg"
attr unit  cqi
scalar Tests.eNodeB.nic.mac 	cqiDlMuMimo1:lteAvg 	14.956
attr source  cqiDlMuMimo1
attr title  "Average cqi MuMimo band 1, lteAvg"
attr unit  cqi
scalar Tests.eNodeB.nic.mac 	cqiDlMuMimo1:lteAvg 	8.832
attr source  cqiDlMuMimo1
attr title  "Average cqi MuMimo band 1, lteAvg"
attr unit  cqi
scalar Tests.eNodeB.nic.mac 	cqiDlMuMimo1:lteAvg 	14.991666666667
attr source  cqiDlMuMimo1
attr title  "Average cqi MuMimo band 1, lteAvg"
attr unit  cqi
scalar Tests.eNodeB.nic.mac 	cqiDlMuMimo1:lteAvg 	10.579
attr source  cqiDlMuMimo1
attr title  "Average cqi MuMimo band 1, lteAvg"
attr unit  cqi
scalar Tests.eNodeB.nic.mac 	cqiDlMuMimo1:lteAvg 	14.998666666667
attr source  cqiDlMuMimo1
attr title  "Average cqi MuMimo band 1, lteAvg"
attr unit  cqi
scalar Tests.eNodeB.nic.mac 	cqiDlMuMimo1:lteAvg 	12.622
attr source  cqiDlMuMimo1
attr title  "Average cqi MuMimo band 1, lteAvg"
attr unit  cqi
scalar Tests.eNodeB.nic.mac 	cqiDlMuMimo1:lteAvg 	12.646333333333
attr source  cqiDlMuMimo1
attr title  "Average cqi MuMimo band 1, lteAvg"
attr unit  cqi
scalar Tests.eNodeB.nic.mac 	cqiDlMuMimo1:lteAvg 	12.384666666667
attr source  cqiDlMuMimo1
attr title  "Average cqi MuMimo band 1, lteAvg"
attr unit  cqi
scalar Tests.eNodeB.nic.mac 	cqiDlMuMimo1:lteAvg 	12.363333333333
attr source  cqiDlMuMimo1
attr title  "Average cqi MuMimo band 1, lteAvg"
attr unit  cqi
scalar Tests.eNodeB.nic.mac 	cqiDlMuMimo1:lteAvg 	9.133
attr source  cqiDlMuMimo1
attr title  "Average cqi MuMimo band 1, lteAvg"
attr unit  cqi
scalar Tests.eNodeB.nic.mac 	cqiDlMuMimo1:lteAvg 	14.002
attr source  cqiDlMuMimo1
attr title  "Average cqi MuMimo band 1, lteAvg"
attr unit  cqi
scalar Tests.eNodeB.nic.mac 	cqiDlMuMimo1:lteAvg 	11.423666666667
attr source  cqiDlMuMimo1
attr title  "Average cqi MuMimo band 1, lteAvg"
attr unit  cqi
scalar Tests.eNodeB.nic.mac 	cqiDlMuMimo1:lteAvg 	4.834
attr source  cqiDlMuMimo1
attr title  "Average cqi MuMimo band 1, lteAvg"
attr unit  cqi
scalar Tests.eNodeB.nic.mac 	cqiDlMuMimo1:lteAvg 	14.541
attr source  cqiDlMuMimo1
attr title  "Average cqi MuMimo band 1, lteAvg"
attr unit  cqi
scalar Tests.eNodeB.nic.mac 	cqiDlMuMimo1:lteAvg 	11.465333333333
attr source  cqiDlMuMimo1
attr title  "Average cqi MuMimo band 1, lteAvg"
attr unit  cqi
scalar Tests.eNodeB.nic.mac 	cqiDlMuMimo1:lteAvg 	13.534
attr source  cqiDlMuMimo1
attr title  "Average cqi MuMimo band 1, lteAvg"
attr unit  cqi
scalar Tests.eNodeB.nic.mac 	cqiDlMuMimo1:lteAvg 	11.581666666667
attr source  cqiDlMuMimo1
attr title  "Average cqi MuMimo band 1, lteAvg"
attr unit  cqi
scalar Tests.eNodeB.nic.mac 	cqiDlMuMimo1:lteAvg 	14.402333333333
attr source  cqiDlMuMimo1
attr title  "Average cqi MuMimo band 1, lteAvg"
attr unit  cqi
scalar Tests.eNodeB.nic.mac 	cqiDlMuMimo1:lteAvg 	14.476333333333
attr source  cqiDlMuMimo1
attr title  "Average cqi MuMimo band 1, lteAvg"
attr unit  cqi
scalar Tests.eNodeB.nic.mac 	cqiDlMuMimo1:lteAvg 	13.267666666667
attr source  cqiDlMuMimo1
attr title  "Average cqi MuMimo band 1, lteAvg"
attr unit  cqi
scalar Tests.eNodeB.nic.mac 	cqiDlMuMimo1:lteAvg 	6.406
attr source  cqiDlMuMimo1
attr title  "Average cqi MuMimo band 1, lteAvg"
attr unit  cqi
scalar Tests.eNodeB.nic.mac 	cqiDlMuMimo0:lteAvg 	4.4466666666667
attr source  cqiDlMuMimo0
attr title  "Average cqi MuMimo band 0, lteAvg"
attr unit  cqi
scalar Tests.eNodeB.nic.mac 	cqiDlMuMimo0:lteAvg 	7.8383333333333
attr source  cqiDlMuMimo0
attr title  "Average cqi MuMimo band 0, lteAvg"
attr unit  cqi
scalar Tests.eNodeB.nic.mac 	cqiDlMuMimo0:lteAvg 	14.73
attr source  cqiDlMuMimo0
attr title  "Average cqi MuMimo band 0, lteAvg"
attr unit  cqi
scalar Tests.eNodeB.nic.mac 	cqiDlMuMimo0:lteAvg 	15
attr source  cqiDlMuMimo0
attr title  "Average cqi MuMimo band 0, lteAvg"
attr unit  cqi
scalar Tests.eNodeB.nic.mac 	cqiDlMuMimo0:lteAvg 	14.625666666667
attr source  cqiDlMuMimo0
attr title  "Average cqi MuMimo band 0, lteAvg"
attr unit  cqi
scalar Tests.eNodeB.nic.mac 	cqiDlMuMimo0:lteAvg 	12.834333333333
attr source  cqiDlMuMimo0
attr title  "Average cqi MuMimo band 0, lteAvg"
attr unit  cqi
scalar Tests.eNodeB.nic.mac 	cqiDlMuMimo0:lteAvg 	7.0313333333333
attr source  cqiDlMuMimo0
attr title  "Average cqi MuMimo band 0, lteAvg"
attr unit  cqi
scalar Tests.eNodeB.nic.mac 	cqiDlMuMimo0:lteAvg 	14.999666666667
attr source  cqiDlMuMimo0
attr title  "Average cqi MuMimo band 0, lteAvg"
attr unit  cqi
scalar Tests.eNodeB.nic.mac 	cqiDlMuMimo0:lteAvg 	13.480333333333
attr source  cqiDlMuMimo0
attr title  "Average cqi MuMimo band 0, lteAvg"
attr unit  cqi
scalar Tests.eNodeB.nic.mac 	cqiDlMuMimo0:lteAvg 	14.981666666667
attr source  cqiDlMuMimo0
attr title  "Average cqi MuMimo band 0, lteAvg"
attr unit  cqi
scalar Tests.eNodeB.nic.mac 	cqiDlMuMimo0:lteAvg 	14.415666666667
attr source  cqiDlMuMimo0
attr title  "Average cqi MuMimo band 0, lteAvg"
attr unit  cqi
scalar Tests.eNodeB.nic.mac 	cqiDlMuMimo0:lteAvg 	14.991666666667
attr source  cqiDlMuMimo0
attr title  "Average cqi MuMimo band 0, lteAvg"
attr unit  cqi
scalar Tests.eNodeB.nic.mac 	cqiDlMuMimo0:lteAvg 	9.9533333333333
attr source  cqiDlMuMimo0
attr title  "Average cqi MuMimo band 0, lteAvg"
attr unit  cqi
scalar Tests.eNodeB.nic.mac 	cqiDlMuMimo0:lteAvg 	14.996666666667
attr source  cqiDlMuMimo0
attr title  "Average cqi MuMimo band 0, lteAvg"
attr unit  cqi
scalar Tests.eNodeB.nic.mac 	cqiDlMuMimo0:lteAvg 	14.711666666667
attr source  cqiDlMuMimo0
attr title  "Average cqi MuMimo band 0, lteAvg"
attr unit  cqi
scalar Tests.eNodeB.nic.mac 	cqiDlMuMimo0:lteAvg 	7.737
attr source  cqiDlMuMimo0
attr title  "Average cqi MuMimo band 0, lteAvg"
attr unit  cqi
scalar Tests.eNodeB.nic.mac 	cqiDlMuMimo0:lteAvg 	10.8
attr source  cqiDlMuMimo0
attr title  "Average cqi MuMimo band 0, lteAvg"
attr unit  cqi
scalar Tests.eNodeB.nic.mac 	cqiDlMuMimo0:lteAvg 	14.884333333333
attr source  cqiDlMuMimo0
attr title  "Average cqi MuMimo band 0, lteAvg"
attr unit  cqi
scalar Tests.eNodeB.nic.mac 	cqiDlMuMimo0:lteAvg 	11.479333333333
attr source  cqiDlMuMimo0
attr title  "Average cqi MuMimo band 0, lteAvg"
attr unit  cqi
scalar Tests.eNodeB.nic.mac 	cqiDlMuMimo0:lteAvg 	2.5443333333333
attr source  cqiDlMuMimo0
attr title  "Average cqi MuMimo band 0, lteAvg"
attr unit  cqi
scalar Tests.eNodeB.nic.mac 	cqiDlMuMimo0:lteAvg 	3.672
attr source  cqiDlMuMimo0
attr title  "Average cqi MuMimo band 0, lteAvg"
attr unit  cqi
scalar Tests.eNodeB.nic.mac 	cqiDlMuMimo0:lteAvg 	9.7003333333333
attr source  cqiDlMuMimo0
attr title  "Average cqi MuMimo band 0, lteAvg"
attr unit  cqi
scalar Tests.eNodeB.nic.mac 	cqiDlMuMimo0:lteAvg 	13.859
attr source  cqiDlMuMimo0
attr title  "Average cqi MuMimo band 0, lteAvg"
attr unit  cqi
scalar Tests.eNodeB.nic.mac 	cqiDlMuMimo0:lteAvg 	13.444333333333
attr source  cqiDlMuMimo0
attr title  "Average cqi MuMimo band 0, lteAvg"
attr unit  cqi
scalar Tests.eNodeB.nic.mac 	cqiDlMuMimo0:lteAvg 	7.522
attr source  cqiDlMuMimo0
attr title  "Average cqi MuMimo band 0, lteAvg"
attr unit  cqi
scalar Tests.eNodeB.nic.mac 	cqiDlMuMimo0:lteAvg 	13.548
attr source  cqiDlMuMimo0
attr title  "Average cqi MuMimo band 0, lteAvg"
attr unit  cqi
scalar Tests.eNodeB.nic.mac 	cqiDlMuMimo0:lteAvg 	14.951333333333
attr source  cqiDlMuMimo0
attr title  "Average cqi MuMimo band 0, lteAvg"
attr unit  cqi
scalar Tests.eNodeB.nic.mac 	cqiDlMuMimo0:lteAvg 	14.785333333333
attr source  cqiDlMuMimo0
attr title  "Average cqi MuMimo band 0, lteAvg"
attr unit  cqi
scalar Tests.eNodeB.nic.mac 	cqiDlMuMimo0:lteAvg 	14.694666666667
attr source  cqiDlMuMimo0
attr title  "Average cqi MuMimo band 0, lteAvg"
attr unit  cqi
scalar Tests.eNodeB.nic.mac 	cqiDlMuMimo0:lteAvg 	9.7503333333333
attr source  cqiDlMuMimo0
attr title  "Average cqi MuMimo band 0, lteAvg"
attr unit  cqi
scalar Tests.eNodeB.nic.mac 	cqiDlTxDiv4:lteAvg 	14.964333333333
attr source  cqiDlTxDiv4
attr title  "Average cqi TxDiv band 4, lteAvg"
attr unit  cqi
scalar Tests.eNodeB.nic.mac 	cqiDlTxDiv4:lteAvg 	14.668333333333
attr source  cqiDlTxDiv4
attr title  "Average cqi TxDiv band 4, lteAvg"
attr unit  cqi
scalar Tests.eNodeB.nic.mac 	cqiDlTxDiv4:lteAvg 	14.998
attr source  cqiDlTxDiv4
attr title  "Average cqi TxDiv band 4, lteAvg"
attr unit  cqi
scalar Tests.eNodeB.nic.mac 	cqiDlTxDiv4:lteAvg 	15
attr source  cqiDlTxDiv4
attr title  "Average cqi TxDiv band 4, lteAvg"
attr unit  cqi
scalar Tests.eNodeB.nic.mac 	cqiDlTxDiv4:lteAvg 	14.992
attr source  cqiDlTxDiv4
attr title  "Average cqi TxDiv band 4, lteAvg"
attr unit  cqi
scalar Tests.eNodeB.nic.mac 	cqiDlTxDiv4:lteAvg 	14.986666666667
attr source  cqiDlTxDiv4
attr title  "Average cqi TxDiv band 4, lteAvg"
attr unit  cqi
scalar Tests.eNodeB.nic.mac 	cqiDlTxDiv4:lteAvg 	14.716666666667
attr source  cqiDlTxDiv4
attr title  "Average cqi TxDiv band 4, lteAvg"
attr unit  cqi
scalar Tests.eNodeB.nic.mac 	cqiDlTxDiv4:lteAvg 	15
attr source  cqiDlTxDiv4
attr title  "Average cqi TxDiv band 4, lteAvg"
attr unit  cqi
scalar Tests.eNodeB.nic.mac 	cqiDlTxDiv4:lteAvg 	13.672
attr source  cqiDlTxDiv4
attr title  "Average cqi TxDiv band 4, lteAvg"
attr unit  cqi
scalar Tests.eNodeB.nic.mac 	cqiDlTxDiv4:lteAvg 	14.998666666667
attr source  cqiDlTxDiv4
attr title  "Average cqi TxDiv band 4, lteAvg"
attr unit  cqi
scalar Tests.eNodeB.nic.mac 	cqiDlTxDiv4:lteAvg 	14.995666666667
attr source  cqiDlTxDiv4
attr title  "Average cqi TxDiv band 4, lteAvg"
attr unit  cqi
scalar Tests.eNodeB.nic.mac 	cqiDlTxDiv4:lteAvg 	15
attr source  cqiDlTxDiv4
attr title  "Average cqi TxDiv band 4, lteAvg"
attr unit  cqi
scalar Tests.eNodeB.nic.mac 	cqiDlTxDiv4:lteAvg 	14.921666666667
attr source  cqiDlTxDiv4
attr title  "Average cqi TxDiv band 4, lteAvg"
attr unit  cqi
scalar Tests.eNodeB.nic.mac 	cqiDlTxDiv4:lteAvg 	15
attr source  cqiDlTxDiv4
attr title  "Average cqi TxDiv band 4, lteAvg"
attr unit  cqi
scalar Tests.eNodeB.nic.mac 	cqiDlTxDiv4:lteAvg 	14.997333333333
attr source  cqiDlTxDiv4
attr title  "Average cqi TxDiv band 4, lteAvg"
attr unit  cqi
scalar Tests.eNodeB.nic.mac 	cqiDlTxDiv4:lteAvg 	14.983333333333
attr source  cqiDlTxDiv4
attr title  "Average cqi TxDiv band 4, lteAvg"
attr unit  cqi
scalar Tests.eNodeB.nic.mac 	cqiDlTxDiv4:lteAvg 	13.871
attr source  cqiDlTxDiv4
attr title  "Average cqi TxDiv band 4, lteAvg"
attr unit  cqi
scalar Tests.eNodeB.nic.mac 	cqiDlTxDiv4:lteAvg 	14.988333333333
attr source  cqiDlTxDiv4
attr title  "Average cqi TxDiv band 4, lteAvg"
attr unit  cqi
scalar Tests.eNodeB.nic.mac 	cqiDlTxDiv4:lteAvg 	14.986666666667
attr source  cqiDlTxDiv4
attr title  "Average cqi TxDiv band 4, lteAvg"
attr unit  cqi
scalar Tests.eNodeB.nic.mac 	cqiDlTxDiv4:lteAvg 	14.981666666667
attr source  cqiDlTxDiv4
attr title  "Average cqi TxDiv band 4, lteAvg"
attr unit  cqi
scalar Tests.eNodeB.nic.mac 	cqiDlTxDiv4:lteAvg 	14.960666666667
attr source  cqiDlTxDiv4
attr title  "Average cqi TxDiv band 4, lteAvg"
attr unit  cqi
scalar Tests.eNodeB.nic.mac 	cqiDlTxDiv4:lteAvg 	14.804
attr source  cqiDlTxDiv4
attr title  "Average cqi TxDiv band 4, lteAvg"
attr unit  cqi
scalar Tests.eNodeB.nic.mac 	cqiDlTxDiv4:lteAvg 	15
attr source  cqiDlTxDiv4
attr title  "Average cqi TxDiv band 4, lteAvg"
attr unit  cqi
scalar Tests.eNodeB.nic.mac 	cqiDlTxDiv4:lteAvg 	14.976333333333
attr source  cqiDlTxDiv4
attr title  "Average cqi TxDiv band 4, lteAvg"
attr unit  cqi
scalar Tests.eNodeB.nic.mac 	cqiDlTxDiv4:lteAvg 	14.972333333333
attr source  cqiDlTxDiv4
attr title  "Average cqi TxDiv band 4, lteAvg"
attr unit  cqi
scalar Tests.eNodeB.nic.mac 	cqiDlTxDiv4:lteAvg 	14.995
attr source  cqiDlTxDiv4
attr title  "Average cqi TxDiv band 4, lteAvg"
attr unit  cqi
scalar Tests.eNodeB.nic.mac 	cqiDlTxDiv4:lteAvg 	14.998666666667
attr source  cqiDlTxDiv4
attr title  "Average cqi TxDiv band 4, lteAvg"
attr unit  cqi
scalar Tests.eNodeB.nic.mac 	cqiDlTxDiv4:lteAvg 	14.998
attr source  cqiDlTxDiv4
attr title  "Average cqi TxDiv band 4, lteAvg"
attr unit  cqi
scalar Tests.eNodeB.nic.mac 	cqiDlTxDiv4:lteAvg 	14.991666666667
attr source  cqiDlTxDiv4
attr title  "Average cqi TxDiv band 4, lteAvg"
attr unit  cqi
scalar Tests.eNodeB.nic.mac 	cqiDlTxDiv4:lteAvg 	14.969666666667
attr source  cqiDlTxDiv4
attr title  "Average cqi TxDiv band 4, lteAvg"
attr unit  cqi
scalar Tests.eNodeB.nic.mac 	cqiDlTxDiv3:lteAvg 	13.982
attr source  cqiDlTxDiv3
attr title  "Average cqi TxDiv band 3, lteAvg"
attr unit  cqi
scalar Tests.eNodeB.nic.mac 	cqiDlTxDiv3:lteAvg 	12.247
attr source  cqiDlTxDiv3
attr title  "Average cqi TxDiv band 3, lteAvg"
attr unit  cqi
scalar Tests.eNodeB.nic.mac 	cqiDlTxDiv3:lteAvg 	14.994
attr source  cqiDlTxDiv3
attr title  "Average cqi TxDiv band 3, lteAvg"
attr unit  cqi
scalar Tests.eNodeB.nic.mac 	cqiDlTxDiv3:lteAvg 	15
attr source  cqiDlTxDiv3
attr title  "Average cqi TxDiv band 3, lteAvg"
attr unit  cqi
scalar Tests.eNodeB.nic.mac 	cqiDlTxDiv3:lteAvg 	14.996333333333
attr source  cqiDlTxDiv3
attr title  "Average cqi TxDiv band 3, lteAvg"
attr unit  cqi
scalar Tests.eNodeB.nic.mac 	cqiDlTxDiv3:lteAvg 	14.991333333333
attr source  cqiDlTxDiv3
attr title  "Average cqi TxDiv band 3, lteAvg"
attr unit  cqi
scalar Tests.eNodeB.nic.mac 	cqiDlTxDiv3:lteAvg 	13.434333333333
attr source  cqiDlTxDiv3
attr title  "Average cqi TxDiv band 3, lteAvg"
attr unit  cqi
scalar Tests.eNodeB.nic.mac 	cqiDlTxDiv3:lteAvg 	15
attr source  cqiDlTxDiv3
attr title  "Average cqi TxDiv band 3, lteAvg"
attr unit  cqi
scalar Tests.eNodeB.nic.mac 	cqiDlTxDiv3:lteAvg 	14.979333333333
attr source  cqiDlTxDiv3
attr title  "Average cqi TxDiv band 3, lteAvg"
attr unit  cqi
scalar Tests.eNodeB.nic.mac 	cqiDlTxDiv3:lteAvg 	14.997666666667
attr source  cqiDlTxDiv3
attr title  "Average cqi TxDiv band 3, lteAvg"
attr unit  cqi
scalar Tests.eNodeB.nic.mac 	cqiDlTxDiv3:lteAvg 	14.994666666667
attr source  cqiDlTxDiv3
attr title  "Average cqi TxDiv band 3, lteAvg"
attr unit  cqi
scalar Tests.eNodeB.nic.mac 	cqiDlTxDiv3:lteAvg 	15
attr source  cqiDlTxDiv3
attr title  "Average cqi TxDiv band 3, lteAvg"
attr unit  cqi
scalar Tests.eNodeB.nic.mac 	cqiDlTxDiv3:lteAvg 	12.412333333333
attr source  cqiDlTxDiv3
attr title  "Average cqi TxDiv band 3, lteAvg"
attr unit  cqi
scalar Tests.eNodeB.nic.mac 	cqiDlTxDiv3:lteAvg 	14.998333333333
attr source  cqiDlTxDiv3
attr title  "Average cqi TxDiv band 3, lteAvg"
attr unit  cqi
scalar Tests.eNodeB.nic.mac 	cqiDlTxDiv3:lteAvg 	14.994333333333
attr source  cqiDlTxDiv3
attr title  "Average cqi TxDiv band 3, lteAvg"
attr unit  cqi
scalar Tests.eNodeB.nic.mac 	cqiDlTxDiv3:lteAvg 	14.983
attr source  cqiDlTxDiv3
attr title  "Average cqi TxDiv band 3, lteAvg"
attr unit  cqi
scalar Tests.eNodeB.nic.mac 	cqiDlTxDiv3:lteAvg 	14.991333333333
attr source  cqiDlTxDiv3
attr title  "Average cqi TxDiv band 3, lteAvg"
attr unit  cqi
scalar Tests.eNodeB.nic.mac 	cqiDlTxDiv3:lteAvg 	14.997666666667
attr source  cqiDlTxDiv3
attr title  "Average cqi TxDiv band 3, lteAvg"
attr unit  cqi
scalar Tests.eNodeB.nic.mac 	cqiDlTxDiv3:lteAvg 	14.993333333333
attr source  cqiDlTxDiv3
attr title  "Average cqi TxDiv band 3, lteAvg"
attr unit  cqi
scalar Tests.eNodeB.nic.mac 	cqiDlTxDiv3:lteAvg 	13.483333333333
attr source  cqiDlTxDiv3
attr title  "Average cqi TxDiv band 3, lteAvg"
attr unit  cqi
scalar Tests.eNodeB.nic.mac 	cqiDlTxDiv3:lteAvg 	14.972333333333
attr source  cqiDlTxDiv3
attr title  "Average cqi TxDiv band 3, lteAvg"
attr unit  cqi
scalar Tests.eNodeB.nic.mac 	cqiDlTxDiv3:lteAvg 	14.947666666667
attr source  cqiDlTxDiv3
attr title  "Average cqi TxDiv band 3, lteAvg"
attr unit  cqi
scalar Tests.eNodeB.nic.mac 	cqiDlTxDiv3:lteAvg 	15
attr source  cqiDlTxDiv3
attr title  "Average cqi TxDiv band 3, lteAvg"
attr unit  cqi
scalar Tests.eNodeB.nic.mac 	cqiDlTxDiv3:lteAvg 	14.978333333333
attr source  cqiDlTxDiv3
attr title  "Average cqi TxDiv band 3, lteAvg"
attr unit  cqi
scalar Tests.eNodeB.nic.mac 	cqiDlTxDiv3:lteAvg 	14.969
attr source  cqiDlTxDiv3
attr title  "Average cqi TxDiv band 3, lteAvg"
attr unit  cqi
scalar Tests.eNodeB.nic.mac 	cqiDlTxDiv3:lteAvg 	14.994
attr source  cqiDlTxDiv3
attr title  "Average cqi TxDiv band 3, lteAvg"
attr unit  cqi
scalar Tests.eNodeB.nic.mac 	cqiDlTxDiv3:lteAvg 	14.992333333333
attr source  cqiDlTxDiv3
attr title  "Average cqi TxDiv band 3, lteAvg"
attr unit  cqi
scalar Tests.eNodeB.nic.mac 	cqiDlTxDiv3:lteAvg 	14.998333333333
attr source  cqiDlTxDiv3
attr title  "Average cqi TxDiv band 3, lteAvg"
attr unit  cqi
scalar Tests.eNodeB.nic.mac 	cqiDlTxDiv3:lteAvg 	14.991
attr source  cqiDlTxDiv3
attr title  "Average cqi TxDiv band 3, lteAvg"
attr unit  cqi
scalar Tests.eNodeB.nic.mac 	cqiDlTxDiv3:lteAvg 	14.993333333333
attr source  cqiDlTxDiv3
attr title  "Average cqi TxDiv band 3, lteAvg"
attr unit  cqi
scalar Tests.eNodeB.nic.mac 	cqiDlTxDiv2:lteAvg 	14.946666666667
attr source  cqiDlTxDiv2
attr title  "Average cqi TxDiv band 2, lteAvg"
attr unit  cqi
scalar Tests.eNodeB.nic.mac 	cqiDlTxDiv2:lteAvg 	8.7353333333333
attr source  cqiDlTxDiv2
attr title  "Average cqi TxDiv band 2, lteAvg"
attr unit  cqi
scalar Tests.eNodeB.nic.mac 	cqiDlTxDiv2:lteAvg 	14.999666666667
attr source  cqiDlTxDiv2
attr title  "Average cqi TxDiv band 2, lteAvg"
attr unit  cqi
scalar Tests.eNodeB.nic.mac 	cqiDlTxDiv2:lteAvg 	15
attr source  cqiDlTxDiv2
attr title  "Average cqi TxDiv band 2, lteAvg"
attr unit  cqi
scalar Tests.eNodeB.nic.mac 	cqiDlTxDiv2:lteAvg 	14.998333333333
attr source  cqiDlTxDiv2
attr title  "Average cqi TxDiv band 2, lteAvg"
attr unit  cqi
scalar Tests.eNodeB.nic.mac 	cqiDlTxDiv2:lteAvg 	14.993
attr source  cqiDlTxDiv2
attr title  "Average cqi TxDiv band 2, lteAvg"
attr unit  cqi
scalar Tests.eNodeB.nic.mac 	cqiDlTxDiv2:lteAvg 	9.364
attr source  cqiDlTxDiv2
attr title  "Average cqi TxDiv band 2, lteAvg"
attr unit  cqi
scalar Tests.eNodeB.nic.mac 	cqiDlTxDiv2:lteAvg 	15
attr source  cqiDlTxDiv2
attr title  "Average cqi TxDiv band 2, lteAvg"
attr unit  cqi
scalar Tests.eNodeB.nic.mac 	cqiDlTxDiv2:lteAvg 	13.685
attr source  cqiDlTxDiv2
attr title  "Average cqi TxDiv band 2, lteAvg"
attr unit  cqi
scalar Tests.eNodeB.nic.mac 	cqiDlTxDiv2:lteAvg 	15
attr source  cqiDlTxDiv2
attr title  "Average cqi TxDiv band 2, lteAvg"
attr unit  cqi
scalar Tests.eNodeB.nic.mac 	cqiDlTxDiv2:lteAvg 	14.998
attr source  cqiDlTxDiv2
attr title  "Average cqi TxDiv band 2, lteAvg"
attr unit  cqi
scalar Tests.eNodeB.nic.mac 	cqiDlTxDiv2:lteAvg 	14.999333333333
attr source  cqiDlTxDiv2
attr title  "Average cqi TxDiv band 2, lteAvg"
attr unit  cqi
scalar Tests.eNodeB.nic.mac 	cqiDlTxDiv2:lteAvg 	14.932333333333
attr source  cqiDlTxDiv2
attr title  "Average cqi TxDiv band 2, lteAvg"
attr unit  cqi
scalar Tests.eNodeB.nic.mac 	cqiDlTxDiv2:lteAvg 	15
attr source  cqiDlTxDiv2
attr title  "Average cqi TxDiv band 2, lteAvg"
attr unit  cqi
scalar Tests.eNodeB.nic.mac 	cqiDlTxDiv2:lteAvg 	14.996666666667
attr source  cqiDlTxDiv2
attr title  "Average cqi TxDiv band 2, lteAvg"
attr unit  cqi
scalar Tests.eNodeB.nic.mac 	cqiDlTxDiv2:lteAvg 	14.991333333333
attr source  cqiDlTxDiv2
attr title  "Average cqi TxDiv band 2, lteAvg"
attr unit  cqi
scalar Tests.eNodeB.nic.mac 	cqiDlTxDiv2:lteAvg 	14.98
attr source  cqiDlTxDiv2
attr title  "Average cqi TxDiv band 2, lteAvg"
attr unit  cqi
scalar Tests.eNodeB.nic.mac 	cqiDlTxDiv2:lteAvg 	14.994333333333
attr source  cqiDlTxDiv2
attr title  "Average cqi TxDiv band 2, lteAvg"
attr unit  cqi
scalar Tests.eNodeB.nic.mac 	cqiDlTxDiv2:lteAvg 	14.991666666667
attr source  cqiDlTxDiv2
attr title  "Average cqi TxDiv band 2, lteAvg"
attr unit  cqi
scalar Tests.eNodeB.nic.mac 	cqiDlTxDiv2:lteAvg 	14.982666666667
attr source  cqiDlTxDiv2
attr title  "Average cqi TxDiv band 2, lteAvg"
attr unit  cqi
scalar Tests.eNodeB.nic.mac 	cqiDlTxDiv2:lteAvg 	14.973666666667
attr source  cqiDlTxDiv2
attr title  "Average cqi TxDiv band 2, lteAvg"
attr unit  cqi
scalar Tests.eNodeB.nic.mac 	cqiDlTxDiv2:lteAvg 	14.939333333333
attr source  cqiDlTxDiv2
attr title  "Average cqi TxDiv band 2, lteAvg"
attr unit  cqi
scalar Tests.eNodeB.nic.mac 	cqiDlTxDiv2:lteAvg 	15
attr source  cqiDlTxDiv2
attr title  "Average cqi TxDiv band 2, lteAvg"
attr unit  cqi
scalar Tests.eNodeB.nic.mac 	cqiDlTxDiv2:lteAvg 	14.976666666667
attr source  cqiDlTxDiv2
attr title  "Average cqi TxDiv band 2, lteAvg"
attr unit  cqi
scalar Tests.eNodeB.nic.mac 	cqiDlTxDiv2:lteAvg 	14.973333333333
attr source  cqiDlTxDiv2
attr title  "Average cqi TxDiv band 2, lteAvg"
attr unit  cqi
scalar Tests.eNodeB.nic.mac 	cqiDlTxDiv2:lteAvg 	14.991333333333
attr source  cqiDlTxDiv2
attr title  "Average cqi TxDiv band 2, lteAvg"
attr unit  cqi
scalar Tests.eNodeB.nic.mac 	cqiDlTxDiv2:lteAvg 	14.995
attr source  cqiDlTxDiv2
attr title  "Average cqi TxDiv band 2, lteAvg"
attr unit  cqi
scalar Tests.eNodeB.nic.mac 	cqiDlTxDiv2:lteAvg 	15
attr source  cqiDlTxDiv2
attr title  "Average cqi TxDiv band 2, lteAvg"
attr unit  cqi
scalar Tests.eNodeB.nic.mac 	cqiDlTxDiv2:lteAvg 	14.986333333333
attr source  cqiDlTxDiv2
attr title  "Average cqi TxDiv band 2, lteAvg"
attr unit  cqi
scalar Tests.eNodeB.nic.mac 	cqiDlTxDiv2:lteAvg 	14.980333333333
attr source  cqiDlTxDiv2
attr title  "Average cqi TxDiv band 2, lteAvg"
attr unit  cqi
scalar Tests.eNodeB.nic.mac 	cqiDlTxDiv1:lteAvg 	14.963333333333
attr source  cqiDlTxDiv1
attr title  "Average cqi TxDiv band 1, lteAvg"
attr unit  cqi
scalar Tests.eNodeB.nic.mac 	cqiDlTxDiv1:lteAvg 	3.2886666666667
attr source  cqiDlTxDiv1
attr title  "Average cqi TxDiv band 1, lteAvg"
attr unit  cqi
scalar Tests.eNodeB.nic.mac 	cqiDlTxDiv1:lteAvg 	14.995
attr source  cqiDlTxDiv1
attr title  "Average cqi TxDiv band 1, lteAvg"
attr unit  cqi
scalar Tests.eNodeB.nic.mac 	cqiDlTxDiv1:lteAvg 	15
attr source  cqiDlTxDiv1
attr title  "Average cqi TxDiv band 1, lteAvg"
attr unit  cqi
scalar Tests.eNodeB.nic.mac 	cqiDlTxDiv1:lteAvg 	14.998
attr source  cqiDlTxDiv1
attr title  "Average cqi TxDiv band 1, lteAvg"
attr unit  cqi
scalar Tests.eNodeB.nic.mac 	cqiDlTxDiv1:lteAvg 	14.983
attr source  cqiDlTxDiv1
attr title  "Average cqi TxDiv band 1, lteAvg"
attr unit  cqi
scalar Tests.eNodeB.nic.mac 	cqiDlTxDiv1:lteAvg 	13.426333333333
attr source  cqiDlTxDiv1
attr title  "Average cqi TxDiv band 1, lteAvg"
attr unit  cqi
scalar Tests.eNodeB.nic.mac 	cqiDlTxDiv1:lteAvg 	15
attr source  cqiDlTxDiv1
attr title  "Average cqi TxDiv band 1, lteAvg"
attr unit  cqi
scalar Tests.eNodeB.nic.mac 	cqiDlTxDiv1:lteAvg 	14.974
attr source  cqiDlTxDiv1
attr title  "Average cqi TxDiv band 1, lteAvg"
attr unit  cqi
scalar Tests.eNodeB.nic.mac 	cqiDlTxDiv1:lteAvg 	14.997
attr source  cqiDlTxDiv1
attr title  "Average cqi TxDiv band 1, lteAvg"
attr unit  cqi
scalar Tests.eNodeB.nic.mac 	cqiDlTxDiv1:lteAvg 	14.999666666667
attr source  cqiDlTxDiv1
attr title  "Average cqi TxDiv band 1, lteAvg"
attr unit  cqi
scalar Tests.eNodeB.nic.mac 	cqiDlTxDiv1:lteAvg 	15
attr source  cqiDlTxDiv1
attr title  "Average cqi TxDiv band 1, lteAvg"
attr unit  cqi
scalar Tests.eNodeB.nic.mac 	cqiDlTxDiv1:lteAvg 	14.921
attr source  cqiDlTxDiv1
attr title  "Average cqi TxDiv band 1, lteAvg"
attr unit  cqi
scalar Tests.eNodeB.nic.mac 	cqiDlTxDiv1:lteAvg 	15
attr source  cqiDlTxDiv1
attr title  "Average cqi TxDiv band 1, lteAvg"
attr unit  cqi
scalar Tests.eNodeB.nic.mac 	cqiDlTxDiv1:lteAvg 	15
attr source  cqiDlTxDiv1
attr title  "Average cqi TxDiv band 1, lteAvg"
attr unit  cqi
scalar Tests.eNodeB.nic.mac 	cqiDlTxDiv1:lteAvg 	14.986666666667
attr source  cqiDlTxDiv1
attr title  "Average cqi TxDiv band 1, lteAvg"
attr unit  cqi
scalar Tests.eNodeB.nic.mac 	cqiDlTxDiv1:lteAvg 	14.979666666667
attr source  cqiDlTxDiv1
attr title  "Average cqi TxDiv band 1, lteAvg"
attr unit  cqi
scalar Tests.eNodeB.nic.mac 	cqiDlTxDiv1:lteAvg 	14.994333333333
attr source  cqiDlTxDiv1
attr title  "Average cqi TxDiv band 1, lteAvg"
attr unit  cqi
scalar Tests.eNodeB.nic.mac 	cqiDlTxDiv1:lteAvg 	14.995666666667
attr source  cqiDlTxDiv1
attr title  "Average cqi TxDiv band 1, lteAvg"
attr unit  cqi
scalar Tests.eNodeB.nic.mac 	cqiDlTxDiv1:lteAvg 	14.969333333333
attr source  cqiDlTxDiv1
attr title  "Average cqi TxDiv band 1, lteAvg"
attr unit  cqi
scalar Tests.eNodeB.nic.mac 	cqiDlTxDiv1:lteAvg 	14.98
attr source  cqiDlTxDiv1
attr title  "Average cqi TxDiv band 1, lteAvg"
attr unit  cqi
scalar Tests.eNodeB.nic.mac 	cqiDlTxDiv1:lteAvg 	14.438
attr source  cqiDlTxDiv1
attr title  "Average cqi TxDiv band 1, lteAvg"
attr unit  cqi
scalar Tests.eNodeB.nic.mac 	cqiDlTxDiv1:lteAvg 	15
attr source  cqiDlTxDiv1
attr title  "Average cqi TxDiv band 1, lteAvg"
attr unit  cqi
scalar Tests.eNodeB.nic.mac 	cqiDlTxDiv1:lteAvg 	14.960333333333
attr source  cqiDlTxDiv1
attr title  "Average cqi TxDiv band 1, lteAvg"
attr unit  cqi
scalar Tests.eNodeB.nic.mac 	cqiDlTxDiv1:lteAvg 	14.958666666667
attr source  cqiDlTxDiv1
attr title  "Average cqi TxDiv band 1, lteAvg"
attr unit  cqi
scalar Tests.eNodeB.nic.mac 	cqiDlTxDiv1:lteAvg 	14.556333333333
attr source  cqiDlTxDiv1
attr title  "Average cqi TxDiv band 1, lteAvg"
attr unit  cqi
scalar Tests.eNodeB.nic.mac 	cqiDlTxDiv1:lteAvg 	14.997
attr source  cqiDlTxDiv1
attr title  "Average cqi TxDiv band 1, lteAvg"
attr unit  cqi
scalar Tests.eNodeB.nic.mac 	cqiDlTxDiv1:lteAvg 	14.999666666667
attr source  cqiDlTxDiv1
attr title  "Average cqi TxDiv band 1, lteAvg"
attr unit  cqi
scalar Tests.eNodeB.nic.mac 	cqiDlTxDiv1:lteAvg 	14.996
attr source  cqiDlTxDiv1
attr title  "Average cqi TxDiv band 1, lteAvg"
attr unit  cqi
scalar Tests.eNodeB.nic.mac 	cqiDlTxDiv1:lteAvg 	14.554333333333
attr source  cqiDlTxDiv1
attr title  "Average cqi TxDiv band 1, lteAvg"
attr unit  cqi
scalar Tests.eNodeB.nic.mac 	cqiDlTxDiv0:lteAvg 	13.007333333333
attr source  cqiDlTxDiv0
attr title  "Average cqi TxDiv band 0, lteAvg"
attr unit  cqi
scalar Tests.eNodeB.nic.mac 	cqiDlTxDiv0:lteAvg 	14.455333333333
attr source  cqiDlTxDiv0
attr title  "Average cqi TxDiv band 0, lteAvg"
attr unit  cqi
scalar Tests.eNodeB.nic.mac 	cqiDlTxDiv0:lteAvg 	14.995666666667
attr source  cqiDlTxDiv0
attr title  "Average cqi TxDiv band 0, lteAvg"
attr unit  cqi
scalar Tests.eNodeB.nic.mac 	cqiDlTxDiv0:lteAvg 	15
attr source  cqiDlTxDiv0
attr title  "Average cqi TxDiv band 0, lteAvg"
attr unit  cqi
scalar Tests.eNodeB.nic.mac 	cqiDlTxDiv0:lteAvg 	14.991666666667
attr source  cqiDlTxDiv0
attr title  "Average cqi TxDiv band 0, lteAvg"
attr unit  cqi
scalar Tests.eNodeB.nic.mac 	cqiDlTxDiv0:lteAvg 	14.991333333333
attr source  cqiDlTxDiv0
attr title  "Average cqi TxDiv band 0, lteAvg"
attr unit  cqi
scalar Tests.eNodeB.nic.mac 	cqiDlTxDiv0:lteAvg 	14.579
attr source  cqiDlTxDiv0
attr title  "Average cqi TxDiv band 0, lteAvg"
attr unit  cqi
scalar Tests.eNodeB.nic.mac 	cqiDlTxDiv0:lteAvg 	15
attr source  cqiDlTxDiv0
attr title  "Average cqi TxDiv band 0, lteAvg"
attr unit  cqi
scalar Tests.eNodeB.nic.mac 	cqiDlTxDiv0:lteAvg 	14.947333333333
attr source  cqiDlTxDiv0
attr title  "Average cqi TxDiv band 0, lteAvg"
attr unit  cqi
scalar Tests.eNodeB.nic.mac 	cqiDlTxDiv0:lteAvg 	14.998
attr source  cqiDlTxDiv0
attr title  "Average cqi TxDiv band 0, lteAvg"
attr unit  cqi
scalar Tests.eNodeB.nic.mac 	cqiDlTxDiv0:lteAvg 	14.996
attr source  cqiDlTxDiv0
attr title  "Average cqi TxDiv band 0, lteAvg"
attr unit  cqi
scalar Tests.eNodeB.nic.mac 	cqiDlTxDiv0:lteAvg 	15
attr source  cqiDlTxDiv0
attr title  "Average cqi TxDiv band 0, lteAvg"
attr unit  cqi
scalar Tests.eNodeB.nic.mac 	cqiDlTxDiv0:lteAvg 	14.920666666667
attr source  cqiDlTxDiv0
attr title  "Average cqi TxDiv band 0, lteAvg"
attr unit  cqi
scalar Tests.eNodeB.nic.mac 	cqiDlTxDiv0:lteAvg 	15
attr source  cqiDlTxDiv0
attr title  "Average cqi TxDiv band 0, lteAvg"
attr unit  cqi
scalar Tests.eNodeB.nic.mac 	cqiDlTxDiv0:lteAvg 	15
attr source  cqiDlTxDiv0
attr title  "Average cqi TxDiv band 0, lteAvg"
attr unit  cqi
scalar Tests.eNodeB.nic.mac 	cqiDlTxDiv0:lteAvg 	14.378
attr source  cqiDlTxDiv0
attr title  "Average cqi TxDiv band 0, lteAvg"
attr unit  cqi
scalar Tests.eNodeB.nic.mac 	cqiDlTxDiv0:lteAvg 	14.985
attr source  cqiDlTxDiv0
attr title  "Average cqi TxDiv band 0, lteAvg"
attr unit  cqi
scalar Tests.eNodeB.nic.mac 	cqiDlTxDiv0:lteAvg 	14.991333333333
attr source  cqiDlTxDiv0
attr title  "Average cqi TxDiv band 0, lteAvg"
attr unit  cqi
scalar Tests.eNodeB.nic.mac 	cqiDlTxDiv0:lteAvg 	14.992666666667
attr source  cqiDlTxDiv0
attr title  "Average cqi TxDiv band 0, lteAvg"
attr unit  cqi
scalar Tests.eNodeB.nic.mac 	cqiDlTxDiv0:lteAvg 	7.4056666666667
attr source  cqiDlTxDiv0
attr title  "Average cqi TxDiv band 0, lteAvg"
attr unit  cqi
scalar Tests.eNodeB.nic.mac 	cqiDlTxDiv0:lteAvg 	11.278666666667
attr source  cqiDlTxDiv0
attr title  "Average cqi TxDiv band 0, lteAvg"
attr unit  cqi
scalar Tests.eNodeB.nic.mac 	cqiDlTxDiv0:lteAvg 	14.944
attr source  cqiDlTxDiv0
attr title  "Average cqi TxDiv band 0, lteAvg"
attr unit  cqi
scalar Tests.eNodeB.nic.mac 	cqiDlTxDiv0:lteAvg 	15
attr source  cqiDlTxDiv0
attr title  "Average cqi TxDiv band 0, lteAvg"
attr unit  cqi
scalar Tests.eNodeB.nic.mac 	cqiDlTxDiv0:lteAvg 	14.973
attr source  cqiDlTxDiv0
attr title  "Average cqi TxDiv band 0, lteAvg"
attr unit  cqi
scalar Tests.eNodeB.nic.mac 	cqiDlTxDiv0:lteAvg 	14.985666666667
attr source  cqiDlTxDiv0
attr title  "Average cqi TxDiv band 0, lteAvg"
attr unit  cqi
scalar Tests.eNodeB.nic.mac 	cqiDlTxDiv0:lteAvg 	14.994666666667
attr source  cqiDlTxDiv0
attr title  "Average cqi TxDiv band 0, lteAvg"
attr unit  cqi
scalar Tests.eNodeB.nic.mac 	cqiDlTxDiv0:lteAvg 	14.995666666667
attr source  cqiDlTxDiv0
attr title  "Average cqi TxDiv band 0, lteAvg"
attr unit  cqi
scalar Tests.eNodeB.nic.mac 	cqiDlTxDiv0:lteAvg 	14.996666666667
attr source  cqiDlTxDiv0
attr title  "Average cqi TxDiv band 0, lteAvg"
attr unit  cqi
scalar Tests.eNodeB.nic.mac 	cqiDlTxDiv0:lteAvg 	14.990333333333
attr source  cqiDlTxDiv0
attr title  "Average cqi TxDiv band 0, lteAvg"
attr unit  cqi
scalar Tests.eNodeB.nic.mac 	cqiDlTxDiv0:lteAvg 	14.975666666667
attr source  cqiDlTxDiv0
attr title  "Average cqi TxDiv band 0, lteAvg"
attr unit  cqi
scalar Tests.eNodeB.nic.mac 	cqiDlSpmux4:lteAvg 	9.889
attr source  cqiDlSpmux4
attr title  "Average cqi Spmux band 4, lteAvg"
attr unit  cqi
scalar Tests.eNodeB.nic.mac 	cqiDlSpmux4:lteAvg 	7.3903333333333
attr source  cqiDlSpmux4
attr title  "Average cqi Spmux band 4, lteAvg"
attr unit  cqi
scalar Tests.eNodeB.nic.mac 	cqiDlSpmux4:lteAvg 	14.350666666667
attr source  cqiDlSpmux4
attr title  "Average cqi Spmux band 4, lteAvg"
attr unit  cqi
scalar Tests.eNodeB.nic.mac 	cqiDlSpmux4:lteAvg 	14.999
attr source  cqiDlSpmux4
attr title  "Average cqi Spmux band 4, lteAvg"
attr unit  cqi
scalar Tests.eNodeB.nic.mac 	cqiDlSpmux4:lteAvg 	12.498666666667
attr source  cqiDlSpmux4
attr title  "Average cqi Spmux band 4, lteAvg"
attr unit  cqi
scalar Tests.eNodeB.nic.mac 	cqiDlSpmux4:lteAvg 	11.687666666667
attr source  cqiDlSpmux4
attr title  "Average cqi Spmux band 4, lteAvg"
attr unit  cqi
scalar Tests.eNodeB.nic.mac 	cqiDlSpmux4:lteAvg 	6.913
attr source  cqiDlSpmux4
attr title  "Average cqi Spmux band 4, lteAvg"
attr unit  cqi
scalar Tests.eNodeB.nic.mac 	cqiDlSpmux4:lteAvg 	14.990666666667
attr source  cqiDlSpmux4
attr title  "Average cqi Spmux band 4, lteAvg"
attr unit  cqi
scalar Tests.eNodeB.nic.mac 	cqiDlSpmux4:lteAvg 	4.8753333333333
attr source  cqiDlSpmux4
attr title  "Average cqi Spmux band 4, lteAvg"
attr unit  cqi
scalar Tests.eNodeB.nic.mac 	cqiDlSpmux4:lteAvg 	14.397
attr source  cqiDlSpmux4
attr title  "Average cqi Spmux band 4, lteAvg"
attr unit  cqi
scalar Tests.eNodeB.nic.mac 	cqiDlSpmux4:lteAvg 	13.993
attr source  cqiDlSpmux4
attr title  "Average cqi Spmux band 4, lteAvg"
attr unit  cqi
scalar Tests.eNodeB.nic.mac 	cqiDlSpmux4:lteAvg 	14.978
attr source  cqiDlSpmux4
attr title  "Average cqi Spmux band 4, lteAvg"
attr unit  cqi
scalar Tests.eNodeB.nic.mac 	cqiDlSpmux4:lteAvg 	6.383
attr source  cqiDlSpmux4
attr title  "Average cqi Spmux band 4, lteAvg"
attr unit  cqi
scalar Tests.eNodeB.nic.mac 	cqiDlSpmux4:lteAvg 	14.997333333333
attr source  cqiDlSpmux4
attr title  "Average cqi Spmux band 4, lteAvg"
attr unit  cqi
scalar Tests.eNodeB.nic.mac 	cqiDlSpmux4:lteAvg 	14.387333333333
attr source  cqiDlSpmux4
attr title  "Average cqi Spmux band 4, lteAvg"
attr unit  cqi
scalar Tests.eNodeB.nic.mac 	cqiDlSpmux4:lteAvg 	8.6793333333333
attr source  cqiDlSpmux4
attr title  "Average cqi Spmux band 4, lteAvg"
attr unit  cqi
scalar Tests.eNodeB.nic.mac 	cqiDlSpmux4:lteAvg 	5.786
attr source  cqiDlSpmux4
attr title  "Average cqi Spmux band 4, lteAvg"
attr unit  cqi
scalar Tests.eNodeB.nic.mac 	cqiDlSpmux4:lteAvg 	10.302666666667
attr source  cqiDlSpmux4
attr title  "Average cqi Spmux band 4, lteAvg"
attr unit  cqi
scalar Tests.eNodeB.nic.mac 	cqiDlSpmux4:lteAvg 	12.856333333333
attr source  cqiDlSpmux4
attr title  "Average cqi Spmux band 4, lteAvg"
attr unit  cqi
scalar Tests.eNodeB.nic.mac 	cqiDlSpmux4:lteAvg 	11.788
attr source  cqiDlSpmux4
attr title  "Average cqi Spmux band 4, lteAvg"
attr unit  cqi
scalar Tests.eNodeB.nic.mac 	cqiDlSpmux4:lteAvg 	9.4616666666667
attr source  cqiDlSpmux4
attr title  "Average cqi Spmux band 4, lteAvg"
attr unit  cqi
scalar Tests.eNodeB.nic.mac 	cqiDlSpmux4:lteAvg 	5.749
attr source  cqiDlSpmux4
attr title  "Average cqi Spmux band 4, lteAvg"
attr unit  cqi
scalar Tests.eNodeB.nic.mac 	cqiDlSpmux4:lteAvg 	14.968333333333
attr source  cqiDlSpmux4
attr title  "Average cqi Spmux band 4, lteAvg"
attr unit  cqi
scalar Tests.eNodeB.nic.mac 	cqiDlSpmux4:lteAvg 	9.2573333333333
attr source  cqiDlSpmux4
attr title  "Average cqi Spmux band 4, lteAvg"
attr unit  cqi
scalar Tests.eNodeB.nic.mac 	cqiDlSpmux4:lteAvg 	7.2326666666667
attr source  cqiDlSpmux4
attr title  "Average cqi Spmux band 4, lteAvg"
attr unit  cqi
scalar Tests.eNodeB.nic.mac 	cqiDlSpmux4:lteAvg 	13.34
attr source  cqiDlSpmux4
attr title  "Average cqi Spmux band 4, lteAvg"
attr unit  cqi
scalar Tests.eNodeB.nic.mac 	cqiDlSpmux4:lteAvg 	14.891
attr source  cqiDlSpmux4
attr title  "Average cqi Spmux band 4, lteAvg"
attr unit  cqi
scalar Tests.eNodeB.nic.mac 	cqiDlSpmux4:lteAvg 	14.922666666667
attr source  cqiDlSpmux4
attr title  "Average cqi Spmux band 4, lteAvg"
attr unit  cqi
scalar Tests.eNodeB.nic.mac 	cqiDlSpmux4:lteAvg 	12.970666666667
attr source  cqiDlSpmux4
attr title  "Average cqi Spmux band 4, lteAvg"
attr unit  cqi
scalar Tests.eNodeB.nic.mac 	cqiDlSpmux4:lteAvg 	7.0326666666667
attr source  cqiDlSpmux4
attr title  "Average cqi Spmux band 4, lteAvg"
attr unit  cqi
scalar Tests.eNodeB.nic.mac 	cqiDlSpmux3:lteAvg 	6.0673333333333
attr source  cqiDlSpmux3
attr title  "Average cqi Spmux band 3, lteAvg"
attr unit  cqi
scalar Tests.eNodeB.nic.mac 	cqiDlSpmux3:lteAvg 	4.173
attr source  cqiDlSpmux3
attr title  "Average cqi Spmux band 3, lteAvg"
attr unit  cqi
scalar Tests.eNodeB.nic.mac 	cqiDlSpmux3:lteAvg 	9.1166666666667
attr source  cqiDlSpmux3
attr title  "Average cqi Spmux band 3, lteAvg"
attr unit  cqi
scalar Tests.eNodeB.nic.mac 	cqiDlSpmux3:lteAvg 	14.999333333333
attr source  cqiDlSpmux3
attr title  "Average cqi Spmux band 3, lteAvg"
attr unit  cqi
scalar Tests.eNodeB.nic.mac 	cqiDlSpmux3:lteAvg 	13.646333333333
attr source  cqiDlSpmux3
attr title  "Average cqi Spmux band 3, lteAvg"
attr unit  cqi
scalar Tests.eNodeB.nic.mac 	cqiDlSpmux3:lteAvg 	7.576
attr source  cqiDlSpmux3
attr title  "Average cqi Spmux band 3, lteAvg"
attr unit  cqi
scalar Tests.eNodeB.nic.mac 	cqiDlSpmux3:lteAvg 	5.0833333333333
attr source  cqiDlSpmux3
attr title  "Average cqi Spmux band 3, lteAvg"
attr unit  cqi
scalar Tests.eNodeB.nic.mac 	cqiDlSpmux3:lteAvg 	14.997333333333
attr source  cqiDlSpmux3
attr title  "Average cqi Spmux band 3, lteAvg"
attr unit  cqi
scalar Tests.eNodeB.nic.mac 	cqiDlSpmux3:lteAvg 	8.7213333333333
attr source  cqiDlSpmux3
attr title  "Average cqi Spmux band 3, lteAvg"
attr unit  cqi
scalar Tests.eNodeB.nic.mac 	cqiDlSpmux3:lteAvg 	14.809333333333
attr source  cqiDlSpmux3
attr title  "Average cqi Spmux band 3, lteAvg"
attr unit  cqi
scalar Tests.eNodeB.nic.mac 	cqiDlSpmux3:lteAvg 	9.432
attr source  cqiDlSpmux3
attr title  "Average cqi Spmux band 3, lteAvg"
attr unit  cqi
scalar Tests.eNodeB.nic.mac 	cqiDlSpmux3:lteAvg 	14.984
attr source  cqiDlSpmux3
attr title  "Average cqi Spmux band 3, lteAvg"
attr unit  cqi
scalar Tests.eNodeB.nic.mac 	cqiDlSpmux3:lteAvg 	3.6173333333333
attr source  cqiDlSpmux3
attr title  "Average cqi Spmux band 3, lteAvg"
attr unit  cqi
scalar Tests.eNodeB.nic.mac 	cqiDlSpmux3:lteAvg 	14.990666666667
attr source  cqiDlSpmux3
attr title  "Average cqi Spmux band 3, lteAvg"
attr unit  cqi
scalar Tests.eNodeB.nic.mac 	cqiDlSpmux3:lteAvg 	13.867333333333
attr source  cqiDlSpmux3
attr title  "Average cqi Spmux band 3, lteAvg"
attr unit  cqi
scalar Tests.eNodeB.nic.mac 	cqiDlSpmux3:lteAvg 	7.6986666666667
attr source  cqiDlSpmux3
attr title  "Average cqi Spmux band 3, lteAvg"
attr unit  cqi
scalar Tests.eNodeB.nic.mac 	cqiDlSpmux3:lteAvg 	12.061
attr source  cqiDlSpmux3
attr title  "Average cqi Spmux band 3, lteAvg"
attr unit  cqi
scalar Tests.eNodeB.nic.mac 	cqiDlSpmux3:lteAvg 	7.5596666666667
attr source  cqiDlSpmux3
attr title  "Average cqi Spmux band 3, lteAvg"
attr unit  cqi
scalar Tests.eNodeB.nic.mac 	cqiDlSpmux3:lteAvg 	13.576333333333
attr source  cqiDlSpmux3
attr title  "Average cqi Spmux band 3, lteAvg"
attr unit  cqi
scalar Tests.eNodeB.nic.mac 	cqiDlSpmux3:lteAvg 	5.38
attr source  cqiDlSpmux3
attr title  "Average cqi Spmux band 3, lteAvg"
attr unit  cqi
scalar Tests.eNodeB.nic.mac 	cqiDlSpmux3:lteAvg 	11.876666666667
attr source  cqiDlSpmux3
attr title  "Average cqi Spmux band 3, lteAvg"
attr unit  cqi
scalar Tests.eNodeB.nic.mac 	cqiDlSpmux3:lteAvg 	6.931
attr source  cqiDlSpmux3
attr title  "Average cqi Spmux band 3, lteAvg"
attr unit  cqi
scalar Tests.eNodeB.nic.mac 	cqiDlSpmux3:lteAvg 	14.462
attr source  cqiDlSpmux3
attr title  "Average cqi Spmux band 3, lteAvg"
attr unit  cqi
scalar Tests.eNodeB.nic.mac 	cqiDlSpmux3:lteAvg 	9.58
attr source  cqiDlSpmux3
attr title  "Average cqi Spmux band 3, lteAvg"
attr unit  cqi
scalar Tests.eNodeB.nic.mac 	cqiDlSpmux3:lteAvg 	9.4186666666667
attr source  cqiDlSpmux3
attr title  "Average cqi Spmux band 3, lteAvg"
attr unit  cqi
scalar Tests.eNodeB.nic.mac 	cqiDlSpmux3:lteAvg 	13.120666666667
attr source  cqiDlSpmux3
attr title  "Average cqi Spmux band 3, lteAvg"
attr unit  cqi
scalar Tests.eNodeB.nic.mac 	cqiDlSpmux3:lteAvg 	14.884666666667
attr source  cqiDlSpmux3
attr title  "Average cqi Spmux band 3, lteAvg"
attr unit  cqi
scalar Tests.eNodeB.nic.mac 	cqiDlSpmux3:lteAvg 	14.890666666667
attr source  cqiDlSpmux3
attr title  "Average cqi Spmux band 3, lteAvg"
attr unit  cqi
scalar Tests.eNodeB.nic.mac 	cqiDlSpmux3:lteAvg 	10.305333333333
attr source  cqiDlSpmux3
attr title  "Average cqi Spmux band 3, lteAvg"
attr unit  cqi
scalar Tests.eNodeB.nic.mac 	cqiDlSpmux3:lteAvg 	11.569333333333
attr source  cqiDlSpmux3
attr title  "Average cqi Spmux band 3, lteAvg"
attr unit  cqi
scalar Tests.eNodeB.nic.mac 	cqiDlSpmux2:lteAvg 	11.102666666667
attr source  cqiDlSpmux2
attr title  "Average cqi Spmux band 2, lteAvg"
attr unit  cqi
scalar Tests.eNodeB.nic.mac 	cqiDlSpmux2:lteAvg 	2.8193333333333
attr source  cqiDlSpmux2
attr title  "Average cqi Spmux band 2, lteAvg"
attr unit  cqi
scalar Tests.eNodeB.nic.mac 	cqiDlSpmux2:lteAvg 	14.354666666667
attr source  cqiDlSpmux2
attr title  "Average cqi Spmux band 2, lteAvg"
attr unit  cqi
scalar Tests.eNodeB.nic.mac 	cqiDlSpmux2:lteAvg 	14.997
attr source  cqiDlSpmux2
attr title  "Average cqi Spmux band 2, lteAvg"
attr unit  cqi
scalar Tests.eNodeB.nic.mac 	cqiDlSpmux2:lteAvg 	14.091
attr source  cqiDlSpmux2
attr title  "Average cqi Spmux band 2, lteAvg"
attr unit  cqi
scalar Tests.eNodeB.nic.mac 	cqiDlSpmux2:lteAvg 	10.766
attr source  cqiDlSpmux2
attr title  "Average cqi Spmux band 2, lteAvg"
attr unit  cqi
scalar Tests.eNodeB.nic.mac 	cqiDlSpmux2:lteAvg 	3.0403333333333
attr source  cqiDlSpmux2
attr title  "Average cqi Spmux band 2, lteAvg"
attr unit  cqi
scalar Tests.eNodeB.nic.mac 	cqiDlSpmux2:lteAvg 	14.988
attr source  cqiDlSpmux2
attr title  "Average cqi Spmux band 2, lteAvg"
attr unit  cqi
scalar Tests.eNodeB.nic.mac 	cqiDlSpmux2:lteAvg 	4.867
attr source  cqiDlSpmux2
attr title  "Average cqi Spmux band 2, lteAvg"
attr unit  cqi
scalar Tests.eNodeB.nic.mac 	cqiDlSpmux2:lteAvg 	12.665666666667
attr source  cqiDlSpmux2
attr title  "Average cqi Spmux band 2, lteAvg"
attr unit  cqi
scalar Tests.eNodeB.nic.mac 	cqiDlSpmux2:lteAvg 	8.5713333333333
attr source  cqiDlSpmux2
attr title  "Average cqi Spmux band 2, lteAvg"
attr unit  cqi
scalar Tests.eNodeB.nic.mac 	cqiDlSpmux2:lteAvg 	14.968666666667
attr source  cqiDlSpmux2
attr title  "Average cqi Spmux band 2, lteAvg"
attr unit  cqi
scalar Tests.eNodeB.nic.mac 	cqiDlSpmux2:lteAvg 	6.5536666666667
attr source  cqiDlSpmux2
attr title  "Average cqi Spmux band 2, lteAvg"
attr unit  cqi
scalar Tests.eNodeB.nic.mac 	cqiDlSpmux2:lteAvg 	15
attr source  cqiDlSpmux2
attr title  "Average cqi Spmux band 2, lteAvg"
attr unit  cqi
scalar Tests.eNodeB.nic.mac 	cqiDlSpmux2:lteAvg 	11.692666666667
attr source  cqiDlSpmux2
attr title  "Average cqi Spmux band 2, lteAvg"
attr unit  cqi
scalar Tests.eNodeB.nic.mac 	cqiDlSpmux2:lteAvg 	12.76
attr source  cqiDlSpmux2
attr title  "Average cqi Spmux band 2, lteAvg"
attr unit  cqi
scalar Tests.eNodeB.nic.mac 	cqiDlSpmux2:lteAvg 	11.357
attr source  cqiDlSpmux2
attr title  "Average cqi Spmux band 2, lteAvg"
attr unit  cqi
scalar Tests.eNodeB.nic.mac 	cqiDlSpmux2:lteAvg 	9.348
attr source  cqiDlSpmux2
attr title  "Average cqi Spmux band 2, lteAvg"
attr unit  cqi
scalar Tests.eNodeB.nic.mac 	cqiDlSpmux2:lteAvg 	12.068666666667
attr source  cqiDlSpmux2
attr title  "Average cqi Spmux band 2, lteAvg"
attr unit  cqi
scalar Tests.eNodeB.nic.mac 	cqiDlSpmux2:lteAvg 	11.146666666667
attr source  cqiDlSpmux2
attr title  "Average cqi Spmux band 2, lteAvg"
attr unit  cqi
scalar Tests.eNodeB.nic.mac 	cqiDlSpmux2:lteAvg 	10.644333333333
attr source  cqiDlSpmux2
attr title  "Average cqi Spmux band 2, lteAvg"
attr unit  cqi
scalar Tests.eNodeB.nic.mac 	cqiDlSpmux2:lteAvg 	6.5886666666667
attr source  cqiDlSpmux2
attr title  "Average cqi Spmux band 2, lteAvg"
attr unit  cqi
scalar Tests.eNodeB.nic.mac 	cqiDlSpmux2:lteAvg 	14.463
attr source  cqiDlSpmux2
attr title  "Average cqi Spmux band 2, lteAvg"
attr unit  cqi
scalar Tests.eNodeB.nic.mac 	cqiDlSpmux2:lteAvg 	6.8963333333333
attr source  cqiDlSpmux2
attr title  "Average cqi Spmux band 2, lteAvg"
attr unit  cqi
scalar Tests.eNodeB.nic.mac 	cqiDlSpmux2:lteAvg 	9.437
attr source  cqiDlSpmux2
attr title  "Average cqi Spmux band 2, lteAvg"
attr unit  cqi
scalar Tests.eNodeB.nic.mac 	cqiDlSpmux2:lteAvg 	12.033333333333
attr source  cqiDlSpmux2
attr title  "Average cqi Spmux band 2, lteAvg"
attr unit  cqi
scalar Tests.eNodeB.nic.mac 	cqiDlSpmux2:lteAvg 	8.015
attr source  cqiDlSpmux2
attr title  "Average cqi Spmux band 2, lteAvg"
attr unit  cqi
scalar Tests.eNodeB.nic.mac 	cqiDlSpmux2:lteAvg 	14.925666666667
attr source  cqiDlSpmux2
attr title  "Average cqi Spmux band 2, lteAvg"
attr unit  cqi
scalar Tests.eNodeB.nic.mac 	cqiDlSpmux2:lteAvg 	12.842666666667
attr source  cqiDlSpmux2
attr title  "Average cqi Spmux band 2, lteAvg"
attr unit  cqi
scalar Tests.eNodeB.nic.mac 	cqiDlSpmux2:lteAvg 	8.031
attr source  cqiDlSpmux2
attr title  "Average cqi Spmux band 2, lteAvg"
attr unit  cqi
scalar Tests.eNodeB.nic.mac 	cqiDlSpmux1:lteAvg 	11.068666666667
attr source  cqiDlSpmux1
attr title  "Average cqi Spmux band 1, lteAvg"
attr unit  cqi
scalar Tests.eNodeB.nic.mac 	cqiDlSpmux1:lteAvg 	2.1673333333333
attr source  cqiDlSpmux1
attr title  "Average cqi Spmux band 1, lteAvg"
attr unit  cqi
scalar Tests.eNodeB.nic.mac 	cqiDlSpmux1:lteAvg 	13.228
attr source  cqiDlSpmux1
attr title  "Average cqi Spmux band 1, lteAvg"
attr unit  cqi
scalar Tests.eNodeB.nic.mac 	cqiDlSpmux1:lteAvg 	14.993666666667
attr source  cqiDlSpmux1
attr title  "Average cqi Spmux band 1, lteAvg"
attr unit  cqi
scalar Tests.eNodeB.nic.mac 	cqiDlSpmux1:lteAvg 	12.202
attr source  cqiDlSpmux1
attr title  "Average cqi Spmux band 1, lteAvg"
attr unit  cqi
scalar Tests.eNodeB.nic.mac 	cqiDlSpmux1:lteAvg 	12.063
attr source  cqiDlSpmux1
attr title  "Average cqi Spmux band 1, lteAvg"
attr unit  cqi
scalar Tests.eNodeB.nic.mac 	cqiDlSpmux1:lteAvg 	5.0963333333333
attr source  cqiDlSpmux1
attr title  "Average cqi Spmux band 1, lteAvg"
attr unit  cqi
scalar Tests.eNodeB.nic.mac 	cqiDlSpmux1:lteAvg 	14.994333333333
attr source  cqiDlSpmux1
attr title  "Average cqi Spmux band 1, lteAvg"
attr unit  cqi
scalar Tests.eNodeB.nic.mac 	cqiDlSpmux1:lteAvg 	7.437
attr source  cqiDlSpmux1
attr title  "Average cqi Spmux band 1, lteAvg"
attr unit  cqi
scalar Tests.eNodeB.nic.mac 	cqiDlSpmux1:lteAvg 	14.809333333333
attr source  cqiDlSpmux1
attr title  "Average cqi Spmux band 1, lteAvg"
attr unit  cqi
scalar Tests.eNodeB.nic.mac 	cqiDlSpmux1:lteAvg 	7.124
attr source  cqiDlSpmux1
attr title  "Average cqi Spmux band 1, lteAvg"
attr unit  cqi
scalar Tests.eNodeB.nic.mac 	cqiDlSpmux1:lteAvg 	14.977666666667
attr source  cqiDlSpmux1
attr title  "Average cqi Spmux band 1, lteAvg"
attr unit  cqi
scalar Tests.eNodeB.nic.mac 	cqiDlSpmux1:lteAvg 	7.8056666666667
attr source  cqiDlSpmux1
attr title  "Average cqi Spmux band 1, lteAvg"
attr unit  cqi
scalar Tests.eNodeB.nic.mac 	cqiDlSpmux1:lteAvg 	14.996333333333
attr source  cqiDlSpmux1
attr title  "Average cqi Spmux band 1, lteAvg"
attr unit  cqi
scalar Tests.eNodeB.nic.mac 	cqiDlSpmux1:lteAvg 	10.461
attr source  cqiDlSpmux1
attr title  "Average cqi Spmux band 1, lteAvg"
attr unit  cqi
scalar Tests.eNodeB.nic.mac 	cqiDlSpmux1:lteAvg 	11.471666666667
attr source  cqiDlSpmux1
attr title  "Average cqi Spmux band 1, lteAvg"
attr unit  cqi
scalar Tests.eNodeB.nic.mac 	cqiDlSpmux1:lteAvg 	10.402
attr source  cqiDlSpmux1
attr title  "Average cqi Spmux band 1, lteAvg"
attr unit  cqi
scalar Tests.eNodeB.nic.mac 	cqiDlSpmux1:lteAvg 	8.902
attr source  cqiDlSpmux1
attr title  "Average cqi Spmux band 1, lteAvg"
attr unit  cqi
scalar Tests.eNodeB.nic.mac 	cqiDlSpmux1:lteAvg 	7.1496666666667
attr source  cqiDlSpmux1
attr title  "Average cqi Spmux band 1, lteAvg"
attr unit  cqi
scalar Tests.eNodeB.nic.mac 	cqiDlSpmux1:lteAvg 	12.372
attr source  cqiDlSpmux1
attr title  "Average cqi Spmux band 1, lteAvg"
attr unit  cqi
scalar Tests.eNodeB.nic.mac 	cqiDlSpmux1:lteAvg 	9.4796666666667
attr source  cqiDlSpmux1
attr title  "Average cqi Spmux band 1, lteAvg"
attr unit  cqi
scalar Tests.eNodeB.nic.mac 	cqiDlSpmux1:lteAvg 	5.1796666666667
attr source  cqiDlSpmux1
attr title  "Average cqi Spmux band 1, lteAvg"
attr unit  cqi
scalar Tests.eNodeB.nic.mac 	cqiDlSpmux1:lteAvg 	14.375
attr source  cqiDlSpmux1
attr title  "Average cqi Spmux band 1, lteAvg"
attr unit  cqi
scalar Tests.eNodeB.nic.mac 	cqiDlSpmux1:lteAvg 	8.874
attr source  cqiDlSpmux1
attr title  "Average cqi Spmux band 1, lteAvg"
attr unit  cqi
scalar Tests.eNodeB.nic.mac 	cqiDlSpmux1:lteAvg 	10.991666666667
attr source  cqiDlSpmux1
attr title  "Average cqi Spmux band 1, lteAvg"
attr unit  cqi
scalar Tests.eNodeB.nic.mac 	cqiDlSpmux1:lteAvg 	10.345666666667
attr source  cqiDlSpmux1
attr title  "Average cqi Spmux band 1, lteAvg"
attr unit  cqi
scalar Tests.eNodeB.nic.mac 	cqiDlSpmux1:lteAvg 	12.916333333333
attr source  cqiDlSpmux1
attr title  "Average cqi Spmux band 1, lteAvg"
attr unit  cqi
scalar Tests.eNodeB.nic.mac 	cqiDlSpmux1:lteAvg 	13.483
attr source  cqiDlSpmux1
attr title  "Average cqi Spmux band 1, lteAvg"
attr unit  cqi
scalar Tests.eNodeB.nic.mac 	cqiDlSpmux1:lteAvg 	11.171
attr source  cqiDlSpmux1
attr title  "Average cqi Spmux band 1, lteAvg"
attr unit  cqi
scalar Tests.eNodeB.nic.mac 	cqiDlSpmux1:lteAvg 	5.8763333333333
attr source  cqiDlSpmux1
attr title  "Average cqi Spmux band 1, lteAvg"
attr unit  cqi
scalar Tests.eNodeB.nic.mac 	cqiDlSpmux0:lteAvg 	4.8073333333333
attr source  cqiDlSpmux0
attr title  "Average cqi Spmux band 0, lteAvg"
attr unit  cqi
scalar Tests.eNodeB.nic.mac 	cqiDlSpmux0:lteAvg 	6.9303333333333
attr source  cqiDlSpmux0
attr title  "Average cqi Spmux band 0, lteAvg"
attr unit  cqi
scalar Tests.eNodeB.nic.mac 	cqiDlSpmux0:lteAvg 	14.310333333333
attr source  cqiDlSpmux0
attr title  "Average cqi Spmux band 0, lteAvg"
attr unit  cqi
scalar Tests.eNodeB.nic.mac 	cqiDlSpmux0:lteAvg 	15
attr source  cqiDlSpmux0
attr title  "Average cqi Spmux band 0, lteAvg"
attr unit  cqi
scalar Tests.eNodeB.nic.mac 	cqiDlSpmux0:lteAvg 	13.808
attr source  cqiDlSpmux0
attr title  "Average cqi Spmux band 0, lteAvg"
attr unit  cqi
scalar Tests.eNodeB.nic.mac 	cqiDlSpmux0:lteAvg 	10.826333333333
attr source  cqiDlSpmux0
attr title  "Average cqi Spmux band 0, lteAvg"
attr unit  cqi
scalar Tests.eNodeB.nic.mac 	cqiDlSpmux0:lteAvg 	6.0856666666667
attr source  cqiDlSpmux0
[...]
attr title  "Harq Error Rate Dl, mean"
attr unit  ""
scalar Tests.ue[27].nic.mac 	macPacketLossDl:mean 	-nan
attr source  macPacketLossDl
attr title  "Mac Packet Loss, mean"
attr unit  ""
scalar Tests.ue[27].nic.mac 	macPacketLossUl:mean 	-nan
attr source  macPacketLossUl
attr title  "Mac Packet Loss, mean"
attr unit  ""
scalar Tests.ue[27].nic.mac 	macCellPacketLossUl:mean 	-nan
attr source  macCellPacketLossUl
attr title  "Mac Cell Packet Loss, mean"
attr unit  ""
scalar Tests.ue[27].nic.mac 	macCellPacketLossDl:mean 	-nan
attr source  macCellPacketLossDl
attr title  "Mac Cell Packet Loss, mean"
attr unit  ""
scalar Tests.ue[27].nic.mac 	sentPacketToLowerLayer:count 	0
attr interpolationmode  none
attr source  sentPacketToLowerLayer
scalar Tests.ue[27].nic.mac 	sentPacketToLowerLayer:sum(packetBytes) 	0
attr interpolationmode  none
attr source  sentPacketToLowerLayer
scalar Tests.ue[27].nic.mac 	sentPacketToUpperLayer:count 	0
attr interpolationmode  none
attr source  sentPacketToUpperLayer
scalar Tests.ue[27].nic.mac 	sentPacketToUpperLayer:sum(packetBytes) 	0
attr interpolationmode  none
attr source  sentPacketToUpperLayer
scalar Tests.ue[27].nic.mac 	receivedPacketFromLowerLayer:count 	0
attr interpolationmode  none
attr source  receivedPacketFromLowerLayer
scalar Tests.ue[27].nic.mac 	receivedPacketFromLowerLayer:sum(packetBytes) 	0
attr interpolationmode  none
attr source  receivedPacketFromLowerLayer
scalar Tests.ue[27].nic.mac 	receivedPacketFromUpperLayer:count 	0
attr interpolationmode  none
attr source  receivedPacketFromUpperLayer
scalar Tests.ue[27].nic.mac 	receivedPacketFromUpperLayer:sum(packetBytes) 	0
attr interpolationmode  none
attr source  receivedPacketFromUpperLayer
scalar Tests.ue[27].udpApp[0] 	voipReceivedThroughtput:timeavg 	-nan
attr source  voipReceivedThroughtput
attr title  "Throughput received at the application level, timeavg"
attr unit  Bps
scalar Tests.ue[27].udpApp[0] 	voipReceivedThroughtput:mean 	-nan
attr source  voipReceivedThroughtput
attr title  "Throughput received at the application level, mean"
attr unit  Bps
scalar Tests.ue[27].udpApp[0] 	voipReceivedThroughtput:sum 	0
attr source  voipReceivedThroughtput
attr title  "Throughput received at the application level, sum"
attr unit  Bps
scalar Tests.ue[27].udpApp[0] 	voIPTaildropLoss:mean 	-nan
attr source  voIPTaildropLoss
attr title  "VoIP Tail Drop Loss, mean"
attr unit  ratio
scalar Tests.ue[27].udpApp[0] 	voIPMos:mean 	-nan
attr source  voIPMos
attr title  "VoIP Mos Signal, mean"
attr unit  MOS
scalar Tests.ue[27].udpApp[0] 	voIPJitter:mean 	-nan
attr source  voIPJitter
attr title  "VoIP Playout Loss, mean"
attr unit  s
scalar Tests.ue[27].udpApp[0] 	voIPPlayoutLoss:mean 	-nan
attr source  voIPPlayoutLoss
attr title  "VoIP Playout Loss, mean"
attr unit  ratio
scalar Tests.ue[27].udpApp[0] 	voIPPlayoutDelay:mean 	-nan
attr source  voIPPlayoutDelay
attr title  "VoIP Playout Delay, mean"
attr unit  s
scalar Tests.ue[27].udpApp[0] 	voIPFrameDelay:mean 	-nan
attr source  voIPFrameDelay
attr title  "VoIP Frame Delay, mean"
attr unit  s
scalar Tests.ue[27].udpApp[0] 	voIPFrameLoss:mean 	-nan
attr source  voIPFrameLoss
attr title  "VoIP Frame Loss, mean"
attr unit  ratio
scalar Tests.ue[27].udp 	droppedPkBadChecksum:count 	0
attr interpolationmode  none
attr title  "packets dropped (checksum error), count"
scalar Tests.ue[27].udp 	droppedPkWrongPort:count 	0
attr interpolationmode  none
attr title  "packets dropped (wrong port), count"
scalar Tests.ue[27].udp 	passedUpPk:count 	0
attr interpolationmode  none
attr title  "packets passed up, count"
scalar Tests.ue[27].udp 	rcvdPk:count 	0
attr interpolationmode  none
attr source  rcvdPk
attr title  "packets received, count"
scalar Tests.ue[27].udp 	rcvdPk:sum(packetBytes) 	0
attr interpolationmode  none
attr source  rcvdPk
attr title  "packets received, sum(packetBytes)"
scalar Tests.ue[27].udp 	sentPk:count 	0
attr interpolationmode  none
attr source  sentPk
attr title  "packets sent, count"
scalar Tests.ue[27].udp 	sentPk:sum(packetBytes) 	0
attr interpolationmode  none
attr source  sentPk
attr title  "packets sent, sum(packetBytes)"
scalar Tests.ue[28].networkLayerWIFI.arp 	failedARPResolution:count 	0
attr title  "ARP failed resolutions, count"
scalar Tests.ue[28].networkLayerWIFI.arp 	completedARPResolution:count 	0
attr title  "ARP completed resolutions, count"
scalar Tests.ue[28].networkLayerWIFI.arp 	initiatedARPResolution:count 	0
attr title  "ARP initiated resolutions, count"
scalar Tests.ue[28].networkLayerWIFI.arp 	sentReply:count 	0
attr title  "ARP replies sent, count"
scalar Tests.ue[28].networkLayerWIFI.arp 	sentReq:count 	0
attr title  "ARP request sent, count"
scalar Tests.ue[28].networkLayerLTE.arp 	failedARPResolution:count 	0
attr title  "ARP failed resolutions, count"
scalar Tests.ue[28].networkLayerLTE.arp 	completedARPResolution:count 	0
attr title  "ARP completed resolutions, count"
scalar Tests.ue[28].networkLayerLTE.arp 	initiatedARPResolution:count 	0
attr title  "ARP initiated resolutions, count"
scalar Tests.ue[28].networkLayerLTE.arp 	sentReply:count 	0
attr title  "ARP replies sent, count"
scalar Tests.ue[28].networkLayerLTE.arp 	sentReq:count 	0
attr title  "ARP request sent, count"
scalar Tests.ue[28].nic.pdcpRrc 	sentPacketToLowerLayer:count 	0
attr interpolationmode  none
attr source  sentPacketToLowerLayer
scalar Tests.ue[28].nic.pdcpRrc 	sentPacketToLowerLayer:sum(packetBytes) 	0
attr interpolationmode  none
attr source  sentPacketToLowerLayer
scalar Tests.ue[28].nic.pdcpRrc 	sentPacketToUpperLayer:count 	0
attr interpolationmode  none
attr source  sentPacketToUpperLayer
scalar Tests.ue[28].nic.pdcpRrc 	sentPacketToUpperLayer:sum(packetBytes) 	0
attr interpolationmode  none
attr source  sentPacketToUpperLayer
scalar Tests.ue[28].nic.pdcpRrc 	receivedPacketFromLowerLayer:count 	0
attr interpolationmode  none
attr source  receivedPacketFromLowerLayer
scalar Tests.ue[28].nic.pdcpRrc 	receivedPacketFromLowerLayer:sum(packetBytes) 	0
attr interpolationmode  none
attr source  receivedPacketFromLowerLayer
scalar Tests.ue[28].nic.pdcpRrc 	receivedPacketFromUpperLayer:count 	0
attr interpolationmode  none
attr source  receivedPacketFromUpperLayer
scalar Tests.ue[28].nic.pdcpRrc 	receivedPacketFromUpperLayer:sum(packetBytes) 	0
attr interpolationmode  none
attr source  receivedPacketFromUpperLayer
scalar Tests.ue[28].nic.mac 	measuredItbs:mean 	-nan
attr source  measuredItbs
attr title  "TBS index, mean"
attr unit  ""
scalar Tests.ue[28].nic.mac 	harqErrorRate_4th_Dl:mean 	-nan
attr source  harqErrorRate_4th_Dl
attr title  "Harq Error Rate Dl, mean"
attr unit  ""
scalar Tests.ue[28].nic.mac 	harqErrorRate_4th_Ul:mean 	-nan
attr source  harqErrorRate_4th_Ul
attr title  "Harq Error Rate Dl, mean"
attr unit  ""
scalar Tests.ue[28].nic.mac 	harqErrorRate_3rd_Dl:mean 	-nan
attr source  harqErrorRate_3rd_Dl
attr title  "Harq Error Rate Dl, mean"
attr unit  ""
scalar Tests.ue[28].nic.mac 	harqErrorRate_3rd_Ul:mean 	-nan
attr source  harqErrorRate_3rd_Ul
attr title  "Harq Error Rate Dl, mean"
attr unit  ""
scalar Tests.ue[28].nic.mac 	harqErrorRate_2nd_Dl:mean 	-nan
attr source  harqErrorRate_2nd_Dl
attr title  "Harq Error Rate Dl, mean"
attr unit  ""
scalar Tests.ue[28].nic.mac 	harqErrorRate_2nd_Ul:mean 	-nan
attr source  harqErrorRate_2nd_Ul
attr title  "Harq Error Rate Dl, mean"
attr unit  ""
scalar Tests.ue[28].nic.mac 	harqErrorRate_1st_Dl:mean 	-nan
attr source  harqErrorRate_1st_Dl
attr title  "Harq Error Rate Dl, mean"
attr unit  ""
scalar Tests.ue[28].nic.mac 	harqErrorRate_1st_Ul:mean 	-nan
attr source  harqErrorRate_1st_Ul
attr title  "Harq Error Rate Dl, mean"
attr unit  ""
scalar Tests.ue[28].nic.mac 	harqErrorRateDl:mean 	-nan
attr source  harqErrorRateDl
attr title  "Harq Error Rate Dl, mean"
attr unit  ""
scalar Tests.ue[28].nic.mac 	harqErrorRateUl:mean 	-nan
attr source  harqErrorRateUl
attr title  "Harq Error Rate Dl, mean"
attr unit  ""
scalar Tests.ue[28].nic.mac 	macPacketLossDl:mean 	-nan
attr source  macPacketLossDl
attr title  "Mac Packet Loss, mean"
attr unit  ""
scalar Tests.ue[28].nic.mac 	macPacketLossUl:mean 	-nan
attr source  macPacketLossUl
attr title  "Mac Packet Loss, mean"
attr unit  ""
scalar Tests.ue[28].nic.mac 	macCellPacketLossUl:mean 	-nan
attr source  macCellPacketLossUl
attr title  "Mac Cell Packet Loss, mean"
attr unit  ""
scalar Tests.ue[28].nic.mac 	macCellPacketLossDl:mean 	-nan
attr source  macCellPacketLossDl
attr title  "Mac Cell Packet Loss, mean"
attr unit  ""
scalar Tests.ue[28].nic.mac 	sentPacketToLowerLayer:count 	0
attr interpolationmode  none
attr source  sentPacketToLowerLayer
scalar Tests.ue[28].nic.mac 	sentPacketToLowerLayer:sum(packetBytes) 	0
attr interpolationmode  none
attr source  sentPacketToLowerLayer
scalar Tests.ue[28].nic.mac 	sentPacketToUpperLayer:count 	0
attr interpolationmode  none
attr source  sentPacketToUpperLayer
scalar Tests.ue[28].nic.mac 	sentPacketToUpperLayer:sum(packetBytes) 	0
attr interpolationmode  none
attr source  sentPacketToUpperLayer
scalar Tests.ue[28].nic.mac 	receivedPacketFromLowerLayer:count 	0
attr interpolationmode  none
attr source  receivedPacketFromLowerLayer
scalar Tests.ue[28].nic.mac 	receivedPacketFromLowerLayer:sum(packetBytes) 	0
attr interpolationmode  none
attr source  receivedPacketFromLowerLayer
scalar Tests.ue[28].nic.mac 	receivedPacketFromUpperLayer:count 	0
attr interpolationmode  none
attr source  receivedPacketFromUpperLayer
scalar Tests.ue[28].nic.mac 	receivedPacketFromUpperLayer:sum(packetBytes) 	0
attr interpolationmode  none
attr source  receivedPacketFromUpperLayer
scalar Tests.ue[28].udpApp[0] 	voipReceivedThroughtput:timeavg 	-nan
attr source  voipReceivedThroughtput
attr title  "Throughput received at the application level, timeavg"
attr unit  Bps
scalar Tests.ue[28].udpApp[0] 	voipReceivedThroughtput:mean 	-nan
attr source  voipReceivedThroughtput
attr title  "Throughput received at the application level, mean"
attr unit  Bps
scalar Tests.ue[28].udpApp[0] 	voipReceivedThroughtput:sum 	0
attr source  voipReceivedThroughtput
attr title  "Throughput received at the application level, sum"
attr unit  Bps
scalar Tests.ue[28].udpApp[0] 	voIPTaildropLoss:mean 	-nan
attr source  voIPTaildropLoss
attr title  "VoIP Tail Drop Loss, mean"
attr unit  ratio
scalar Tests.ue[28].udpApp[0] 	voIPMos:mean 	-nan
attr source  voIPMos
attr title  "VoIP Mos Signal, mean"
attr unit  MOS
scalar Tests.ue[28].udpApp[0] 	voIPJitter:mean 	-nan
attr source  voIPJitter
attr title  "VoIP Playout Loss, mean"
attr unit  s
scalar Tests.ue[28].udpApp[0] 	voIPPlayoutLoss:mean 	-nan
attr source  voIPPlayoutLoss
attr title  "VoIP Playout Loss, mean"
attr unit  ratio
scalar Tests.ue[28].udpApp[0] 	voIPPlayoutDelay:mean 	-nan
attr source  voIPPlayoutDelay
attr title  "VoIP Playout Delay, mean"
attr unit  s
scalar Tests.ue[28].udpApp[0] 	voIPFrameDelay:mean 	-nan
attr source  voIPFrameDelay
attr title  "VoIP Frame Delay, mean"
attr unit  s
scalar Tests.ue[28].udpApp[0] 	voIPFrameLoss:mean 	-nan
attr source  voIPFrameLoss
attr title  "VoIP Frame Loss, mean"
attr unit  ratio
scalar Tests.ue[28].udp 	droppedPkBadChecksum:count 	0
attr interpolationmode  none
attr title  "packets dropped (checksum error), count"
scalar Tests.ue[28].udp 	droppedPkWrongPort:count 	0
attr interpolationmode  none
attr title  "packets dropped (wrong port), count"
scalar Tests.ue[28].udp 	passedUpPk:count 	0
attr interpolationmode  none
attr title  "packets passed up, count"
scalar Tests.ue[28].udp 	rcvdPk:count 	0
attr interpolationmode  none
attr source  rcvdPk
attr title  "packets received, count"
scalar Tests.ue[28].udp 	rcvdPk:sum(packetBytes) 	0
attr interpolationmode  none
attr source  rcvdPk
attr title  "packets received, sum(packetBytes)"
scalar Tests.ue[28].udp 	sentPk:count 	0
attr interpolationmode  none
attr source  sentPk
attr title  "packets sent, count"
scalar Tests.ue[28].udp 	sentPk:sum(packetBytes) 	0
attr interpolationmode  none
attr source  sentPk
attr title  "packets sent, sum(packetBytes)"
scalar Tests.ue[29].networkLayerWIFI.arp 	failedARPResolution:count 	0
attr title  "ARP failed resolutions, count"
scalar Tests.ue[29].networkLayerWIFI.arp 	completedARPResolution:count 	0
attr title  "ARP completed resolutions, count"
scalar Tests.ue[29].networkLayerWIFI.arp 	initiatedARPResolution:count 	0
attr title  "ARP initiated resolutions, count"
scalar Tests.ue[29].networkLayerWIFI.arp 	sentReply:count 	0
attr title  "ARP replies sent, count"
scalar Tests.ue[29].networkLayerWIFI.arp 	sentReq:count 	0
attr title  "ARP request sent, count"
scalar Tests.ue[29].networkLayerLTE.arp 	failedARPResolution:count 	0
attr title  "ARP failed resolutions, count"
scalar Tests.ue[29].networkLayerLTE.arp 	completedARPResolution:count 	0
attr title  "ARP completed resolutions, count"
scalar Tests.ue[29].networkLayerLTE.arp 	initiatedARPResolution:count 	0
attr title  "ARP initiated resolutions, count"
scalar Tests.ue[29].networkLayerLTE.arp 	sentReply:count 	0
attr title  "ARP replies sent, count"
scalar Tests.ue[29].networkLayerLTE.arp 	sentReq:count 	0
attr title  "ARP request sent, count"
scalar Tests.ue[29].nic.pdcpRrc 	sentPacketToLowerLayer:count 	0
attr interpolationmode  none
attr source  sentPacketToLowerLayer
scalar Tests.ue[29].nic.pdcpRrc 	sentPacketToLowerLayer:sum(packetBytes) 	0
attr interpolationmode  none
attr source  sentPacketToLowerLayer
scalar Tests.ue[29].nic.pdcpRrc 	sentPacketToUpperLayer:count 	0
attr interpolationmode  none
attr source  sentPacketToUpperLayer
scalar Tests.ue[29].nic.pdcpRrc 	sentPacketToUpperLayer:sum(packetBytes) 	0
attr interpolationmode  none
attr source  sentPacketToUpperLayer
scalar Tests.ue[29].nic.pdcpRrc 	receivedPacketFromLowerLayer:count 	0
attr interpolationmode  none
attr source  receivedPacketFromLowerLayer
scalar Tests.ue[29].nic.pdcpRrc 	receivedPacketFromLowerLayer:sum(packetBytes) 	0
attr interpolationmode  none
attr source  receivedPacketFromLowerLayer
scalar Tests.ue[29].nic.pdcpRrc 	receivedPacketFromUpperLayer:count 	0
attr interpolationmode  none
attr source  receivedPacketFromUpperLayer
scalar Tests.ue[29].nic.pdcpRrc 	receivedPacketFromUpperLayer:sum(packetBytes) 	0
attr interpolationmode  none
attr source  receivedPacketFromUpperLayer
scalar Tests.ue[29].nic.mac 	measuredItbs:mean 	-nan
attr source  measuredItbs
attr title  "TBS index, mean"
attr unit  ""
scalar Tests.ue[29].nic.mac 	harqErrorRate_4th_Dl:mean 	-nan
attr source  harqErrorRate_4th_Dl
attr title  "Harq Error Rate Dl, mean"
attr unit  ""
scalar Tests.ue[29].nic.mac 	harqErrorRate_4th_Ul:mean 	-nan
attr source  harqErrorRate_4th_Ul
attr title  "Harq Error Rate Dl, mean"
attr unit  ""
scalar Tests.ue[29].nic.mac 	harqErrorRate_3rd_Dl:mean 	-nan
attr source  harqErrorRate_3rd_Dl
attr title  "Harq Error Rate Dl, mean"
attr unit  ""
scalar Tests.ue[29].nic.mac 	harqErrorRate_3rd_Ul:mean 	-nan
attr source  harqErrorRate_3rd_Ul
attr title  "Harq Error Rate Dl, mean"
attr unit  ""
scalar Tests.ue[29].nic.mac 	harqErrorRate_2nd_Dl:mean 	-nan
attr source  harqErrorRate_2nd_Dl
attr title  "Harq Error Rate Dl, mean"
attr unit  ""
scalar Tests.ue[29].nic.mac 	harqErrorRate_2nd_Ul:mean 	-nan
attr source  harqErrorRate_2nd_Ul
attr title  "Harq Error Rate Dl, mean"
attr unit  ""
scalar Tests.ue[29].nic.mac 	harqErrorRate_1st_Dl:mean 	-nan
attr source  harqErrorRate_1st_Dl
attr title  "Harq Error Rate Dl, mean"
attr unit  ""
scalar Tests.ue[29].nic.mac 	harqErrorRate_1st_Ul:mean 	-nan
attr source  harqErrorRate_1st_Ul
attr title  "Harq Error Rate Dl, mean"
attr unit  ""
scalar Tests.ue[29].nic.mac 	harqErrorRateDl:mean 	-nan
attr source  harqErrorRateDl
attr title  "Harq Error Rate Dl, mean"
attr unit  ""
scalar Tests.ue[29].nic.mac 	harqErrorRateUl:mean 	-nan
attr source  harqErrorRateUl
attr title  "Harq Error Rate Dl, mean"
attr unit  ""
scalar Tests.ue[29].nic.mac 	macPacketLossDl:mean 	-nan
attr source  macPacketLossDl
attr title  "Mac Packet Loss, mean"
attr unit  ""
scalar Tests.ue[29].nic.mac 	macPacketLossUl:mean 	-nan
attr source  macPacketLossUl
attr title  "Mac Packet Loss, mean"
attr unit  ""
scalar Tests.ue[29].nic.mac 	macCellPacketLossUl:mean 	-nan
attr source  macCellPacketLossUl
attr title  "Mac Cell Packet Loss, mean"
attr unit  ""
scalar Tests.ue[29].nic.mac 	macCellPacketLossDl:mean 	-nan
attr source  macCellPacketLossDl
attr title  "Mac Cell Packet Loss, mean"
attr unit  ""
scalar Tests.ue[29].nic.mac 	sentPacketToLowerLayer:count 	0
attr interpolationmode  none
attr source  sentPacketToLowerLayer
scalar Tests.ue[29].nic.mac 	sentPacketToLowerLayer:sum(packetBytes) 	0
attr interpolationmode  none
attr source  sentPacketToLowerLayer
scalar Tests.ue[29].nic.mac 	sentPacketToUpperLayer:count 	0
attr interpolationmode  none
attr source  sentPacketToUpperLayer
scalar Tests.ue[29].nic.mac 	sentPacketToUpperLayer:sum(packetBytes) 	0
attr interpolationmode  none
attr source  sentPacketToUpperLayer
scalar Tests.ue[29].nic.mac 	receivedPacketFromLowerLayer:count 	0
attr interpolationmode  none
attr source  receivedPacketFromLowerLayer
scalar Tests.ue[29].nic.mac 	receivedPacketFromLowerLayer:sum(packetBytes) 	0
attr interpolationmode  none
attr source  receivedPacketFromLowerLayer
scalar Tests.ue[29].nic.mac 	receivedPacketFromUpperLayer:count 	0
attr interpolationmode  none
attr source  receivedPacketFromUpperLayer
scalar Tests.ue[29].nic.mac 	receivedPacketFromUpperLayer:sum(packetBytes) 	0
attr interpolationmode  none
attr source  receivedPacketFromUpperLayer
scalar Tests.ue[29].udpApp[0] 	voipReceivedThroughtput:timeavg 	-nan
attr source  voipReceivedThroughtput
attr title  "Throughput received at the application level, timeavg"
attr unit  Bps
scalar Tests.ue[29].udpApp[0] 	voipReceivedThroughtput:mean 	-nan
attr source  voipReceivedThroughtput
attr title  "Throughput received at the application level, mean"
attr unit  Bps
scalar Tests.ue[29].udpApp[0] 	voipReceivedThroughtput:sum 	0
attr source  voipReceivedThroughtput
attr title  "Throughput received at the application level, sum"
attr unit  Bps
scalar Tests.ue[29].udpApp[0] 	voIPTaildropLoss:mean 	-nan
attr source  voIPTaildropLoss
attr title  "VoIP Tail Drop Loss, mean"
attr unit  ratio
scalar Tests.ue[29].udpApp[0] 	voIPMos:mean 	-nan
attr source  voIPMos
attr title  "VoIP Mos Signal, mean"
attr unit  MOS
scalar Tests.ue[29].udpApp[0] 	voIPJitter:mean 	-nan
attr source  voIPJitter
attr title  "VoIP Playout Loss, mean"
attr unit  s
scalar Tests.ue[29].udpApp[0] 	voIPPlayoutLoss:mean 	-nan
attr source  voIPPlayoutLoss
attr title  "VoIP Playout Loss, mean"
attr unit  ratio
scalar Tests.ue[29].udpApp[0] 	voIPPlayoutDelay:mean 	-nan
attr source  voIPPlayoutDelay
attr title  "VoIP Playout Delay, mean"
attr unit  s
scalar Tests.ue[29].udpApp[0] 	voIPFrameDelay:mean 	-nan
attr source  voIPFrameDelay
attr title  "VoIP Frame Delay, mean"
attr unit  s
scalar Tests.ue[29].udpApp[0] 	voIPFrameLoss:mean 	-nan
attr source  voIPFrameLoss
attr title  "VoIP Frame Loss, mean"
attr unit  ratio
scalar Tests.ue[29].udp 	droppedPkBadChecksum:count 	0
attr interpolationmode  none
attr title  "packets dropped (checksum error), count"
scalar Tests.ue[29].udp 	droppedPkWrongPort:count 	0
attr interpolationmode  none
attr title  "packets dropped (wrong port), count"
scalar Tests.ue[29].udp 	passedUpPk:count 	0
attr interpolationmode  none
attr title  "packets passed up, count"
scalar Tests.ue[29].udp 	rcvdPk:count 	0
attr interpolationmode  none
attr source  rcvdPk
attr title  "packets received, count"
scalar Tests.ue[29].udp 	rcvdPk:sum(packetBytes) 	0
attr interpolationmode  none
attr source  rcvdPk
attr title  "packets received, sum(packetBytes)"
scalar Tests.ue[29].udp 	sentPk:count 	0
attr interpolationmode  none
attr source  sentPk
attr title  "packets sent, count"
scalar Tests.ue[29].udp 	sentPk:sum(packetBytes) 	0
attr interpolationmode  none
attr source  sentPk
attr title  "packets sent, sum(packetBytes)"
